# generated using pymatgen
data_K3RbGdU6Nb2GaBTe10Mo2AsP6PdPt3BrCl4
_symmetry_space_group_name_H-M   'P 1'
_cell_length_a   4.07229900
_cell_length_b   4.32061529
_cell_length_c   4.85554743
_cell_angle_alpha   93.07030487
_cell_angle_beta   88.81633759
_cell_angle_gamma   97.76748657
_symmetry_Int_Tables_number   1
_chemical_formula_structural   K3RbGdU6Nb2GaBTe10Mo2AsP6PdPt3BrCl4
_chemical_formula_sum
'K3 Rb1 Gd1 U6 Nb2 Ga1 B1 Te10 Mo2 As1 P6 Pd1 Pt3 Br1 Cl4'
_cell_volume   84.51941569
_cell_formula_units_Z   1
loop_
 _symmetry_equiv_pos_site_id
 _symmetry_equiv_pos_as_xyz
  1  'x, y, z'
loop_
 _atom_site_type_symbol
 _atom_site_label
 _atom_site_symmetry_multiplicity
 _atom_site_fract_x
 _atom_site_fract_y
 _atom_site_fract_z
 _atom_site_occupancy
  P  P0  1  0.01902726  0.51967770  0.80160904  1
  Gd  Gd1  1  0.51509845  0.02213061  0.02139781  1
  P  P2  1  0.01488633  0.52225679  0.23879778  1
  Pt  Pt3  1  0.02653174  0.01992619  0.52163309  1
  Pt  Pt4  1  0.51642948  0.52290535  0.51620638  1
  As  As5  1  0.39095226  0.46850747  0.15758824  1
  K  K6  1  0.89052302  0.58828712  0.48975688  1
  K  K7  1  0.38600737  0.18442029  0.80453259  1
  Pt  Pt8  1  0.88274860  0.56245255  0.03236161  1
  Cl  Cl9  1  0.88312733  0.84452027  0.90678668  1
  K  K10  1  0.38779101  0.96976376  0.20775340  1
  Br  Br11  1  0.88643777  0.08915029  0.50409704  1
  Cl  Cl12  1  0.28213599  0.33226281  0.36292788  1
  Cl  Cl13  1  0.28954145  0.83463126  0.83248603  1
  Ga  Ga14  1  0.28753987  0.33165550  0.76976854  1
  Rb  Rb15  1  0.78496468  0.82849896  0.28051299  1
  Cl  Cl16  1  0.78812677  0.33116677  0.82013482  1
  Mo  Mo17  1  0.15142979  0.54329079  0.34485012  1
  P  P18  1  0.64210552  0.47083306  0.22166345  1
  Nb  Nb19  1  0.68906301  0.52123612  0.72572398  1
  B  B20  1  0.92761928  0.76206928  0.04058510  1
  Nb  Nb21  1  0.18077245  0.00978882  0.72007799  1
  P  P22  1  0.67119640  0.02761919  0.87981796  1
  P  P23  1  0.22911696  0.05224971  0.21316114  1
  P  P24  1  0.19609442  0.50125897  0.87361795  1
  Mo  Mo25  1  0.71599722  0.98225337  0.34236068  1
  U  U26  1  0.81469768  0.77072221  0.50094616  1
  U  U27  1  0.81118846  0.54727286  0.88371122  1
  Te  Te28  1  0.81100261  0.90008575  0.23378384  1
  Te  Te29  1  0.31063032  0.42069992  0.75923717  1
  U  U30  1  0.31654906  0.16369899  0.88695031  1
  Te  Te31  1  0.56068224  0.83035058  0.83214319  1
  U  U32  1  0.31149653  0.77234459  0.11223926  1
  Te  Te33  1  0.56239146  0.49226427  0.16524304  1
  Te  Te34  1  0.80601001  0.16070999  0.75946593  1
  U  U35  1  0.31023988  0.54842532  0.50207418  1
  Pd  Pd36  1  0.06385541  0.16245668  0.50042379  1
  Te  Te37  1  0.05953163  0.49691534  0.16796607  1
  U  U38  1  0.81727141  0.15807305  0.11112952  1
  Te  Te39  1  0.80846882  0.41514677  0.49540007  1
  Te  Te40  1  0.31641561  0.16249186  0.24443738  1
  Te  Te41  1  0.31338033  0.90320325  0.49445176  1
  Te  Te42  1  0.06511582  0.82603067  0.83195019  1
