# generated using pymatgen
data_CsK9NaSrLa2Gd2NbVSi6BiP2WO38F5
_symmetry_space_group_name_H-M   'P 1'
_cell_length_a   4.15510988
_cell_length_b   7.13186741
_cell_length_c   9.11912632
_cell_angle_alpha   106.39878082
_cell_angle_beta   105.92355347
_cell_angle_gamma   89.44393921
_symmetry_Int_Tables_number   1
_chemical_formula_structural   CsK9NaSrLa2Gd2NbVSi6BiP2WO38F5
_chemical_formula_sum
'Cs1 K9 Na1 Sr1 La2 Gd2 Nb1 V1 Si6 Bi1 P2 W1 O38 F5'
_cell_volume   248.61965617
_cell_formula_units_Z   1
loop_
 _symmetry_equiv_pos_site_id
 _symmetry_equiv_pos_as_xyz
  1  'x, y, z'
loop_
 _atom_site_type_symbol
 _atom_site_label
 _atom_site_symmetry_multiplicity
 _atom_site_fract_x
 _atom_site_fract_y
 _atom_site_fract_z
 _atom_site_occupancy
  O  O0  1  0.45524830  0.61993581  0.80928671  1
  O  O1  1  0.61437857  0.00741456  0.12087919  1
  K  K2  1  0.18793157  0.32944429  0.29019633  1
  La  La3  1  0.70070159  0.82009387  0.29094827  1
  O  O4  1  0.77421558  0.62768310  0.45250475  1
  O  O5  1  0.26608145  0.01893055  0.43496397  1
  La  La6  1  0.02627952  0.81800240  0.95742768  1
  O  O7  1  0.94149923  0.01633042  0.79806727  1
  K  K8  1  0.52632427  0.31432462  0.95951498  1
  K  K9  1  0.86352074  0.32360548  0.62095463  1
  O  O10  1  0.11662798  0.64106280  0.12991700  1
  Sr  Sr11  1  0.35775542  0.81741881  0.62464094  1
  O  O12  1  0.59631139  0.88650942  0.16938227  1
  O  O13  1  0.43771797  0.41050676  0.12667188  1
  F  F14  1  0.39726219  0.80976057  0.95009345  1
  Si  Si15  1  0.22420999  0.36398780  0.52914757  1
  O  O16  1  0.41369364  0.26074058  0.41197222  1
  Cs  Cs17  1  0.72833908  0.25370958  0.84141284  1
  O  O18  1  0.99850750  0.18717392  0.54111302  1
  F  F19  1  0.76494795  0.79124516  0.63654190  1
  O  O20  1  0.81224698  0.91492176  0.36883259  1
  V  V21  1  0.59142220  0.21757630  0.26985073  1
  F  F22  1  0.32148010  0.33005527  0.67407733  1
  Si  Si23  1  0.37210092  0.72095972  0.10465617  1
  O  O24  1  0.84488916  0.43386886  0.27007541  1
  Si  Si25  1  0.85380954  0.73917133  0.23806897  1
  Si  Si26  1  0.93526477  0.89127505  0.51154178  1
  O  O27  1  0.10172772  0.83416545  0.15309794  1
  O  O28  1  0.15815002  0.67882681  0.50631607  1
  O  O29  1  0.99217993  0.78863215  0.99238884  1
  Bi  Bi30  1  0.73640645  0.04598520  0.99723583  1
  W  W31  1  0.74121279  0.04711915  0.49768713  1
  O  O32  1  0.73398727  0.04237117  0.74624181  1
  O  O33  1  0.51484692  0.82296437  0.49004298  1
  K  K34  1  0.24136935  0.04425944  0.73482561  1
  O  O35  1  0.96240330  0.26788953  0.49944773  1
  O  O36  1  0.95567852  0.82529217  0.49322444  1
  O  O37  1  0.74134582  0.04719022  0.24729992  1
  K  K38  1  0.72984666  0.54572719  0.73831111  1
  O  O39  1  0.51534778  0.27240101  0.49142668  1
  O  O40  1  0.23319414  0.54823059  0.78671217  1
  K  K41  1  0.73783243  0.55519742  0.25202951  1
  O  O42  1  0.23605883  0.54668158  0.20589638  1
  Nb  Nb43  1  0.23506081  0.54624635  0.99305409  1
  O  O44  1  0.47464079  0.30109358  0.99766982  1
  K  K45  1  0.24299069  0.03689865  0.26049405  1
  Na  Na46  1  0.23629230  0.54020768  0.49295515  1
  O  O47  1  0.48269269  0.78791374  0.99526638  1
  O  O48  1  0.99222058  0.29840177  0.98849010  1
  Gd  Gd49  1  0.94833159  0.84182483  0.19472837  1
  P  P50  1  0.10636114  0.14447674  0.53364754  1
  O  O51  1  0.17762357  0.43596593  0.37019268  1
  O  O52  1  0.05190457  0.55436856  0.88665032  1
  O  O53  1  0.80977809  0.15663019  0.62475288  1
  P  P54  1  0.77384651  0.52440208  0.94660938  1
  O  O55  1  0.69361866  0.67725903  0.64901924  1
  Gd  Gd56  1  0.43379480  0.45376042  0.61025518  1
  O  O57  1  0.22264515  0.05324514  0.78706062  1
  O  O58  1  0.20569390  0.95082325  0.39049816  1
  O  O59  1  0.65020913  0.66945648  0.14929235  1
  O  O60  1  0.71646947  0.23855929  0.10343370  1
  F  F61  1  0.70712161  0.37677279  0.46269208  1
  O  O62  1  0.70920533  0.76146114  0.62459278  1
  Si  Si63  1  0.76453519  0.45997235  0.67042458  1
  K  K64  1  0.71299708  0.72038388  0.06206083  1
  O  O65  1  0.57864320  0.27424231  0.86379296  1
  K  K66  1  0.22205944  0.01110362  0.50058973  1
  O  O67  1  0.08067053  0.37460604  0.72388279  1
  F  F68  1  0.20327806  0.42983288  0.09802444  1
  O  O69  1  0.18322660  0.97674817  0.09221655  1
  Si  Si70  1  0.25333154  0.24896611  0.94842392  1
