# generated using pymatgen
data_CsKNa3LiLa3UPaBe2Al4Zn3CdSiGe2BiB2As2RuSe4S15IN9ClO3
_symmetry_space_group_name_H-M   'P 1'
_cell_length_a   5.14198351
_cell_length_b   6.12207842
_cell_length_c   6.60817671
_cell_angle_alpha   84.47502899
_cell_angle_beta   82.72527313
_cell_angle_gamma   85.29515076
_symmetry_Int_Tables_number   1
_chemical_formula_structural
CsKNa3LiLa3UPaBe2Al4Zn3CdSiGe2BiB2As2RuSe4S15IN9ClO3
_chemical_formula_sum
;
Cs1 K1 Na3 Li1 La3 U1 Pa1 Be2 Al4 Zn3 Cd1 Si1 Ge2 Bi1 B2 As2 Ru1 Se4
S15 I1 N9 Cl1 O3
;
_cell_volume   204.87545568
_cell_formula_units_Z   1
loop_
 _symmetry_equiv_pos_site_id
 _symmetry_equiv_pos_as_xyz
  1  'x, y, z'
loop_
 _atom_site_type_symbol
 _atom_site_label
 _atom_site_symmetry_multiplicity
 _atom_site_fract_x
 _atom_site_fract_y
 _atom_site_fract_z
 _atom_site_occupancy
  Cd  Cd0  1  0.03379268  0.34330612  0.12708369  1
  Pa  Pa1  1  0.53769147  0.33908865  0.62834042  1
  Se  Se2  1  0.77071613  0.05677044  0.89318842  1
  Ge  Ge3  1  0.04508698  0.84165007  0.63066715  1
  Se  Se4  1  0.76962048  0.64014369  0.36548793  1
  Se  Se5  1  0.33040372  0.63081670  0.89397436  1
  Se  Se6  1  0.32839736  0.05247018  0.36538997  1
  S  S7  1  0.44922441  0.99362975  0.32922134  1
  Zn  Zn8  1  0.13152124  0.41617623  0.92333198  1
  S  S9  1  0.65321112  0.15552449  0.91502112  1
  Zn  Zn10  1  0.54504716  0.81484210  0.13182949  1
  Zn  Zn11  1  0.33258474  0.61095315  0.53089929  1
  Be  Be12  1  0.73112303  0.02035487  0.72484577  1
  S  S13  1  0.24247423  0.79472178  0.72722089  1
  Be  Be14  1  0.94284320  0.20988116  0.33438313  1
  S  S15  1  0.83781999  0.33429846  0.52868712  1
  S  S16  1  0.03292169  0.53837758  0.14322385  1
  S  S17  1  0.20791948  0.54605371  0.79709560  1
  As  As18  1  0.21325453  0.87007046  0.37943381  1
  S  S19  1  0.86903024  0.65572286  0.39137724  1
  S  S20  1  0.78171653  0.29243910  0.64218247  1
  Cs  Cs21  1  0.14594354  0.38498682  0.12567835  1
  U  U22  1  0.77557868  0.64063299  0.64862466  1
  Na  Na23  1  0.35866645  0.22520031  0.48542655  1
  S  S24  1  0.67451996  0.18102263  0.93443435  1
  Si  Si25  1  0.01040746  0.29431319  0.79495740  1
  As  As26  1  0.65468156  0.88726056  0.24014160  1
  Ge  Ge27  1  0.42487448  0.10844111  0.78056705  1
  S  S28  1  0.94991970  0.12133660  0.36355454  1
  S  S29  1  0.71947217  0.85979849  0.79082137  1
  S  S30  1  0.59480035  0.72817957  0.10206600  1
  S  S31  1  0.29507294  0.85215026  0.55999440  1
  Na  Na32  1  0.09534251  0.84358668  0.96138048  1
  N  N33  1  0.12854600  0.71715647  0.16924199  1
  N  N34  1  0.51971537  0.58759677  0.04610118  1
  B  B35  1  0.30937907  0.65251547  0.09209205  1
  K  K36  1  0.23176934  0.23987629  0.53747964  1
  Na  Na37  1  0.55491620  0.04902213  0.89348626  1
  Li  Li38  1  0.85858554  0.61291891  0.30951270  1
  Ru  Ru39  1  0.81544280  0.59832275  0.94356799  1
  N  N40  1  0.11081699  0.80560035  0.60232353  1
  N  N41  1  0.82579172  0.78086722  0.82184839  1
  Cl  Cl42  1  0.63918477  0.24257942  0.27864370  1
  B  B43  1  0.95750630  0.77818084  0.69920719  1
  O  O44  1  0.80618346  0.29804599  0.78364253  1
  O  O45  1  0.81763715  0.33592638  0.28389192  1
  Bi  Bi46  1  0.77487421  0.17792925  0.02529918  1
  I  I47  1  0.74430466  0.07412811  0.62411690  1
  Al  Al48  1  0.68811333  0.52224618  0.36247420  1
  La  La49  1  0.12234519  0.40996811  0.48823273  1
  N  N50  1  0.94184715  0.52548426  0.96246171  1
  N  N51  1  0.38427854  0.39381415  0.28891888  1
  N  N52  1  0.00517211  0.00362055  0.03487758  1
  Al  Al53  1  0.28690541  0.11384642  0.16427067  1
  La  La54  1  0.15381061  0.94726747  0.75152731  1
  S  S55  1  0.39453477  0.39351979  0.77733243  1
  Al  Al56  1  0.93380088  0.76250654  0.12581667  1
  N  N57  1  0.42308471  0.97893387  0.01296765  1
  La  La58  1  0.35671559  0.63614929  0.08291920  1
  O  O59  1  0.72273415  0.70283341  0.22432247  1
  N  N60  1  0.86601859  0.60235071  0.59021336  1
  Al  Al61  1  0.75189763  0.47366047  0.75847852  1
  S  S62  1  0.21848868  0.88545310  0.36077499  1
