# generated using pymatgen
data_CaCe2NdVZnCrFe2Co8Ni3Ag3B3AsP2N7Cl3(O11F3)2
_symmetry_space_group_name_H-M   'P 1'
_cell_length_a   5.77787256
_cell_length_b   5.78773308
_cell_length_c   6.32254696
_cell_angle_alpha   106.57270813
_cell_angle_beta   83.77281189
_cell_angle_gamma   88.57794189
_symmetry_Int_Tables_number   1
_chemical_formula_structural
CaCe2NdVZnCrFe2Co8Ni3Ag3B3AsP2N7Cl3(O11F3)2
_chemical_formula_sum
'Ca1 Ce2 Nd1 V1 Zn1 Cr1 Fe2 Co8 Ni3 Ag3 B3 As1 P2 N7 Cl3 O22 F6'
_cell_volume   201.10685677
_cell_formula_units_Z   1
loop_
 _symmetry_equiv_pos_site_id
 _symmetry_equiv_pos_as_xyz
  1  'x, y, z'
loop_
 _atom_site_type_symbol
 _atom_site_label
 _atom_site_symmetry_multiplicity
 _atom_site_fract_x
 _atom_site_fract_y
 _atom_site_fract_z
 _atom_site_occupancy
  Ca  Ca0  1  0.75688589  0.97333997  0.39984378  1
  P  P1  1  0.32798076  0.75692433  0.15717353  1
  N  N2  1  0.02730593  0.09948377  0.83277875  1
  N  N3  1  0.01799000  0.44219398  0.51784968  1
  N  N4  1  0.17892060  0.94755363  0.35661250  1
  Ni  Ni5  1  0.75900954  0.98968148  0.90866315  1
  N  N6  1  0.49754232  0.88563693  0.00326797  1
  Nd  Nd7  1  0.76576483  0.46898243  0.87854767  1
  Ni  Ni8  1  0.72746831  0.47940665  0.41162941  1
  N  N9  1  0.51551354  0.61294287  0.26617935  1
  Ce  Ce10  1  0.25895342  0.73979056  0.65464079  1
  N  N11  1  0.51839757  0.33523005  0.54453433  1
  Ce  Ce12  1  0.25067630  0.24820983  0.16881318  1
  Ni  Ni13  1  0.22089942  0.24916829  0.65594518  1
  N  N14  1  0.18372159  0.54607457  0.96670818  1
  O  O15  1  0.11348499  0.99379224  0.56790590  1
  O  O16  1  0.43618053  0.78503269  0.71536434  1
  O  O17  1  0.88203561  0.65843666  0.26427609  1
  V  V18  1  0.44192952  0.10482857  0.75143331  1
  P  P19  1  0.57634854  0.63241947  0.80420029  1
  B  B20  1  0.63058639  0.64358723  0.21036756  1
  Fe  Fe21  1  0.45900258  0.21492024  0.26147646  1
  Fe  Fe22  1  0.11682262  0.63566446  0.48588774  1
  B  B23  1  0.96457261  0.12498158  0.49641365  1
  B  B24  1  0.95362854  0.15001310  0.99857879  1
  O  O25  1  0.43710506  0.54704797  0.30580646  1
  O  O26  1  0.68285489  0.11401398  0.50483119  1
  O  O27  1  0.07895309  0.28078827  0.40918937  1
  O  O28  1  0.87584472  0.62382156  0.73340631  1
  O  O29  1  0.19013678  0.13799587  0.00129105  1
  O  O30  1  0.54915524  0.72284865  0.04175140  1
  O  O31  1  0.72197199  0.15409201  0.99289048  1
  O  O32  1  0.41949821  0.41182515  0.75326782  1
  Cl  Cl33  1  0.60560721  0.71936697  0.62376934  1
  As  As34  1  0.10502522  0.33090997  0.13067740  1
  F  F35  1  0.28652239  0.22447164  0.40328065  1
  O  O36  1  0.83914167  0.19989371  0.31456482  1
  O  O37  1  0.37056929  0.20985052  0.94916338  1
  O  O38  1  0.10609718  0.67069840  0.12358303  1
  F  F39  1  0.92224276  0.22126584  0.85458851  1
  Zn  Zn40  1  0.61000371  0.22624770  0.62752718  1
  Ag  Ag41  1  0.95319986  0.84237987  0.24352455  1
  F  F42  1  0.17308207  0.38819876  0.40795606  1
  Ag  Ag43  1  0.11721672  0.40751454  0.79518342  1
  Cr  Cr44  1  0.02279668  0.12425534  0.52135062  1
  F  F45  1  0.88435358  0.23775749  0.25889939  1
  F  F46  1  0.16832258  0.01176630  0.78259641  1
  Ag  Ag47  1  0.52892244  0.62576085  0.02094129  1
  Cl  Cl48  1  0.55928940  0.39609769  0.79233027  1
  F  F49  1  0.86821026  0.87232751  0.63753104  1
  Cl  Cl50  1  0.48754036  0.85575241  0.25302210  1
  O  O51  1  0.01990809  0.97920161  0.04834772  1
  Co  Co52  1  0.51551008  0.97815317  0.04535009  1
  O  O53  1  0.00900881  0.47773373  0.54648089  1
  O  O54  1  0.02005571  0.47719505  0.04561570  1
  O  O55  1  0.51636970  0.22934344  0.29597539  1
  Co  Co56  1  0.01832817  0.23030682  0.80027115  1
  O  O57  1  0.52020043  0.72802693  0.29582244  1
  Co  Co58  1  0.01935186  0.22674690  0.29918706  1
  O  O59  1  0.51346248  0.72870463  0.79558086  1
  Co  Co60  1  0.51724672  0.97641116  0.54965329  1
  O  O61  1  0.01605382  0.97923696  0.54697114  1
  Co  Co62  1  0.02055330  0.72428244  0.80029303  1
  O  O63  1  0.51783925  0.23248422  0.80172074  1
  Co  Co64  1  0.51854759  0.47718489  0.54885030  1
  Co  Co65  1  0.51863831  0.47568330  0.05091667  1
  Co  Co66  1  0.01990451  0.72805339  0.29648677  1
