# generated using pymatgen
data_K2RbTbU7TaNb2GaSiNi3BTe10MoP4AuCl7
_symmetry_space_group_name_H-M   'P 1'
_cell_length_a   4.07229900
_cell_length_b   4.32061529
_cell_length_c   4.85554743
_cell_angle_alpha   93.07030487
_cell_angle_beta   88.81633759
_cell_angle_gamma   97.76748657
_symmetry_Int_Tables_number   1
_chemical_formula_structural   K2RbTbU7TaNb2GaSiNi3BTe10MoP4AuCl7
_chemical_formula_sum
'K2 Rb1 Tb1 U7 Ta1 Nb2 Ga1 Si1 Ni3 B1 Te10 Mo1 P4 Au1 Cl7'
_cell_volume   84.51941569
_cell_formula_units_Z   1
loop_
 _symmetry_equiv_pos_site_id
 _symmetry_equiv_pos_as_xyz
  1  'x, y, z'
loop_
 _atom_site_type_symbol
 _atom_site_label
 _atom_site_symmetry_multiplicity
 _atom_site_fract_x
 _atom_site_fract_y
 _atom_site_fract_z
 _atom_site_occupancy
  Si  Si0  1  0.57016385  0.24434939  0.38055187  1
  Ni  Ni1  1  0.57271767  0.73521614  0.62082237  1
  Ni  Ni2  1  0.07088349  0.23307495  0.61460859  1
  Ni  Ni3  1  0.56973422  0.23712124  0.90350819  1
  Tb  Tb4  1  0.06950063  0.73986202  0.12177041  1
  K  K5  1  0.95519787  0.04496308  0.48716998  1
  Cl  Cl6  1  0.45821244  0.30459172  0.25532454  1
  Au  Au7  1  0.45885047  0.54511440  0.48400295  1
  Cl  Cl8  1  0.45672402  0.78375393  0.72166002  1
  Cl  Cl9  1  0.46515101  0.78061372  0.25310534  1
  K  K10  1  0.96079564  0.54420877  0.98805386  1
  Cl  Cl11  1  0.46272117  0.31158599  0.71812475  1
  Cl  Cl12  1  0.55833673  0.93827403  0.57692671  1
  Cl  Cl13  1  0.06294627  0.94209701  0.10882738  1
  Rb  Rb14  1  0.56317276  0.44338882  0.00540296  1
  Ga  Ga15  1  0.06127031  0.93583709  0.49723300  1
  Cl  Cl16  1  0.05641326  0.43152940  0.58056867  1
  Ta  Ta17  1  0.50291705  0.89004827  0.00723440  1
  B  B18  1  0.26043984  0.64787000  0.32915413  1
  P  P19  1  0.98867005  0.40015689  0.50547791  1
  Nb  Nb20  1  0.01466667  0.90255100  0.65904504  1
  Mo  Mo21  1  0.02566788  0.42302090  0.03790921  1
  P  P22  1  0.51456791  0.91941315  0.49547648  1
  P  P23  1  0.98988497  0.93342590  0.16199943  1
  Nb  Nb24  1  0.49712369  0.41106370  0.65856820  1
  P  P25  1  0.53461868  0.38091031  0.16524369  1
  Te  Te26  1  0.79636616  0.67367131  0.86792850  1
  Te  Te27  1  0.29300866  0.67133504  0.41484967  1
  U  U28  1  0.29679006  0.67006421  0.75703830  1
  Te  Te29  1  0.54813790  0.99986380  0.80036390  1
  Te  Te30  1  0.55221635  0.34301913  0.48727006  1
  Te  Te31  1  0.30452487  0.95952183  0.14145061  1
  Te  Te32  1  0.79959214  0.95111740  0.40998402  1
  Te  Te33  1  0.79473311  0.40462673  0.14088093  1
  U  U34  1  0.54112250  0.67384231  0.14335009  1
  U  U35  1  0.05348940  0.68050081  0.14563034  1
  Te  Te36  1  0.04382810  0.99734849  0.79726529  1
  U  U37  1  0.80016977  0.06955081  0.14238682  1
  U  U38  1  0.79570818  0.28729874  0.76026493  1
  U  U39  1  0.79253459  0.66921127  0.52422577  1
  Te  Te40  1  0.04438358  0.34350148  0.48436874  1
  U  U41  1  0.29711181  0.06472497  0.53257042  1
  Te  Te42  1  0.29820529  0.39604938  0.87871242  1
