# generated using pymatgen
data_K9Na4SrCaLa2Nb2Si5BiW3O39F4
_symmetry_space_group_name_H-M   'P 1'
_cell_length_a   4.15510988
_cell_length_b   7.13186741
_cell_length_c   9.11912632
_cell_angle_alpha   106.39878082
_cell_angle_beta   105.92355347
_cell_angle_gamma   89.44393921
_symmetry_Int_Tables_number   1
_chemical_formula_structural   K9Na4SrCaLa2Nb2Si5BiW3O39F4
_chemical_formula_sum   'K9 Na4 Sr1 Ca1 La2 Nb2 Si5 Bi1 W3 O39 F4'
_cell_volume   248.61965617
_cell_formula_units_Z   1
loop_
 _symmetry_equiv_pos_site_id
 _symmetry_equiv_pos_as_xyz
  1  'x, y, z'
loop_
 _atom_site_type_symbol
 _atom_site_label
 _atom_site_symmetry_multiplicity
 _atom_site_fract_x
 _atom_site_fract_y
 _atom_site_fract_z
 _atom_site_occupancy
  La  La0  1  0.01845906  0.75181282  0.94325918  1
  O  O1  1  0.79280025  0.55310374  0.44793677  1
  K  K2  1  0.53318709  0.24414660  0.94397944  1
  O  O3  1  0.95427775  0.94974333  0.77996254  1
  O  O4  1  0.27315003  0.94469076  0.42343202  1
  K  K5  1  0.19693434  0.25022113  0.27839863  1
  K  K6  1  0.86334109  0.25327048  0.60940802  1
  O  O7  1  0.12235685  0.56265837  0.12411874  1
  La  La8  1  0.69578284  0.75360364  0.28347540  1
  O  O9  1  0.45682853  0.55707830  0.79980302  1
  Sr  Sr10  1  0.36919433  0.75120831  0.61050373  1
  O  O11  1  0.61350489  0.93805325  0.09900756  1
  O  O12  1  0.07507725  0.67777795  0.17789207  1
  Si  Si13  1  0.34623480  0.72790891  0.72892398  1
  O  O14  1  0.24789897  0.81704295  0.56355238  1
  O  O15  1  0.88579196  0.03606792  0.36508483  1
  O  O16  1  0.57200587  0.90104365  0.72290593  1
  O  O17  1  0.24753173  0.32034135  0.41060427  1
  O  O18  1  0.90925884  0.23808022  0.62190276  1
  Si  Si19  1  0.33134305  0.48897517  0.25989982  1
  Nb  Nb20  1  0.75222933  0.94541579  0.19161248  1
  F  F21  1  0.91757351  0.20184188  0.99412036  1
  O  O22  1  0.47624412  0.40704548  0.78810090  1
  F  F23  1  0.61659181  0.89145821  0.00245306  1
  O  O24  1  0.08861821  0.82468474  0.82471478  1
  Nb  Nb25  1  0.76989549  0.10807838  0.80309832  1
  Si  Si26  1  0.07546459  0.10118318  0.49080655  1
  O  O27  1  0.53984046  0.69514018  0.27861699  1
  O  O28  1  0.47356400  0.26689529  0.16941880  1
  O  O29  1  0.47112986  0.21673027  0.98831016  1
  O  O30  1  0.23757842  0.99089205  0.20593415  1
  O  O31  1  0.50068063  0.72251952  0.47972226  1
  O  O32  1  0.00389657  0.22399816  0.98441714  1
  K  K33  1  0.73139572  0.98283285  0.23653594  1
  O  O34  1  0.22961435  0.99283004  0.76461637  1
  O  O35  1  0.73555332  0.48893413  0.26391333  1
  O  O36  1  0.96901762  0.25789833  0.48274705  1
  W  W37  1  0.73486477  0.48650214  0.48529541  1
  Na  Na38  1  0.73461092  0.49306452  0.98483825  1
  K  K39  1  0.23406903  0.49298537  0.23562634  1
  O  O40  1  0.50563139  0.26030621  0.48126623  1
  Na  Na41  1  0.22963157  0.98844671  0.48530358  1
  O  O42  1  0.46180362  0.75849408  0.97920358  1
  O  O43  1  0.73791546  0.48307842  0.70034432  1
  O  O44  1  0.99454159  0.76319849  0.98394585  1
  W  W45  1  0.23695210  0.99566740  0.98511279  1
  K  K46  1  0.73471916  0.99041879  0.73709404  1
  K  K47  1  0.23423216  0.48741674  0.73553878  1
  O  O48  1  0.96520042  0.71774936  0.48904037  1
  O  O49  1  0.77653068  0.91518617  0.88203937  1
  Na  Na50  1  0.10429323  0.85028046  0.51410162  1
  Bi  Bi51  1  0.98391145  0.58895743  0.14170223  1
  W  W52  1  0.55179447  0.73684096  0.80622011  1
  Na  Na53  1  0.06902809  0.24803096  0.74240357  1
  O  O54  1  0.43559167  0.99936134  0.58553767  1
  O  O55  1  0.09596296  0.24589874  0.34362707  1
  O  O56  1  0.70008433  0.44784206  0.03805697  1
  O  O57  1  0.78457105  0.65235734  0.52427077  1
  O  O58  1  0.30378249  0.51601046  0.83671588  1
  Ca  Ca59  1  0.46803439  0.13708556  0.15123430  1
  O  O60  1  0.30510518  0.80169809  0.10354820  1
  Si  Si61  1  0.16362181  0.21331508  0.74837363  1
  Si  Si62  1  0.65129483  0.99981165  0.01758803  1
  F  F63  1  0.21043321  0.03303301  0.59381467  1
  O  O64  1  0.24225916  0.48133770  0.59843510  1
  O  O65  1  0.70198256  0.71127355  0.06209928  1
  O  O66  1  0.83881956  0.19009466  0.82561064  1
  F  F67  1  0.72091800  0.09398261  0.22846417  1
  K  K68  1  0.18181622  0.43443990  0.19519065  1
  K  K69  1  0.70992136  0.73821443  0.61976928  1
  O  O70  1  0.33058000  0.08754437  0.96255302  1
