# generated using pymatgen
data_KRb2NaLi2CeGdYHoTi2Tl2Zn3GaCoCu2GeHW2Se2I2Cl2O25
_symmetry_space_group_name_H-M   'P 1'
_cell_length_a   6.19659805
_cell_length_b   6.36089897
_cell_length_c   8.49795151
_cell_angle_alpha   93.65718842
_cell_angle_beta   93.44322205
_cell_angle_gamma   90.87302399
_symmetry_Int_Tables_number   1
_chemical_formula_structural
KRb2NaLi2CeGdYHoTi2Tl2Zn3GaCoCu2GeHW2Se2I2Cl2O25
_chemical_formula_sum
;
Rb2 K1 Na1 Li2 Ce1 Gd1 Y1 Ho1 Ti2 Tl2 Zn3 Ga1 Co1 Cu2 Ge1 H1 W2 Se2 I2
Cl2 O25
;
_cell_volume   333.60802437
_cell_formula_units_Z   1
loop_
 _symmetry_equiv_pos_site_id
 _symmetry_equiv_pos_as_xyz
  1  'x, y, z'
loop_
 _atom_site_type_symbol
 _atom_site_label
 _atom_site_symmetry_multiplicity
 _atom_site_fract_x
 _atom_site_fract_y
 _atom_site_fract_z
 _atom_site_occupancy
  Se  Se0  1  0.29875061  0.96176469  0.33604893  1
  I  I1  1  0.79422212  0.45797390  0.84385157  1
  Cu  Cu2  1  0.05234098  0.20865239  0.47028768  1
  O  O3  1  0.79675341  0.96232414  0.55188304  1
  Rb  Rb4  1  0.79859024  0.96061558  0.10050218  1
  I  I5  1  0.29973370  0.96509975  0.84158230  1
  Rb  Rb6  1  0.29641899  0.46200052  0.10472177  1
  Cu  Cu7  1  0.55103081  0.71449232  0.47426695  1
  O  O8  1  0.30329058  0.45996860  0.55292434  1
  Ce  Ce9  1  0.04944101  0.71120143  0.56890339  1
  Y  Y10  1  0.54308766  0.21611716  0.56847149  1
  Se  Se11  1  0.79223245  0.46105528  0.33442190  1
  W  W12  1  0.78969938  0.71975291  0.29784667  1
  O  O13  1  0.45235023  0.91408730  0.41608304  1
  Cl  Cl14  1  0.39413768  0.54884791  0.99801528  1
  Cl  Cl15  1  0.16007870  0.27781761  0.78562570  1
  Na  Na16  1  0.41904560  0.37034741  0.40116984  1
  O  O17  1  0.87001002  0.36020139  0.34649801  1
  Gd  Gd18  1  0.25221735  0.10219644  0.13903761  1
  K  K19  1  0.00388113  0.89625025  0.69206637  1
  O  O20  1  0.02888838  0.80477554  0.33323902  1
  O  O21  1  0.71694958  0.87320894  0.05559859  1
  Tl  Tl22  1  0.03360895  0.21452348  0.03387775  1
  O  O23  1  0.03402447  0.20500581  0.54464942  1
  O  O24  1  0.03114435  0.72261757  0.02565626  1
  O  O25  1  0.52597940  0.95355886  0.25054523  1
  O  O26  1  0.53350949  0.49523667  0.79142886  1
  W  W27  1  0.53171414  0.69899350  0.04677191  1
  Tl  Tl28  1  0.03676109  0.71217227  0.52613372  1
  O  O29  1  0.53847855  0.47401369  0.26606441  1
  Ho  Ho30  1  0.53925568  0.21816148  0.52447200  1
  O  O31  1  0.23164524  0.85581988  0.62073547  1
  Li  Li32  1  0.75696802  0.71786702  0.69556093  1
  Li  Li33  1  0.63761884  0.18832625  0.26545268  1
  O  O34  1  0.02711901  0.96165860  0.12214389  1
  Zn  Zn35  1  0.07272752  0.66644996  0.22538982  1
  O  O36  1  0.76340199  0.32976142  0.64280546  1
  Ga  Ga37  1  0.30198598  0.23979469  0.73246270  1
  O  O38  1  0.50793266  0.45666385  0.11290497  1
  H  H39  1  0.19012146  0.95447993  0.00721765  1
  O  O40  1  0.60269749  0.89005649  0.80446935  1
  Ti  Ti41  1  0.36385617  0.14562276  0.76313263  1
  Zn  Zn42  1  0.94551539  0.01746477  0.02673630  1
  O  O43  1  0.30991036  0.56536061  0.42305532  1
  Ge  Ge44  1  0.54933399  0.56268793  0.66228640  1
  O  O45  1  0.35690328  0.49924028  0.83730429  1
  O  O46  1  0.07824816  0.99470478  0.55487990  1
  O  O47  1  0.65194619  0.77088279  0.27043423  1
  O  O48  1  0.57460171  0.23371808  0.60836250  1
  Co  Co49  1  0.34763843  0.55999035  0.13605717  1
  O  O50  1  0.85514557  0.28823498  0.22443983  1
  O  O51  1  0.24511744  0.19477090  0.99857885  1
  O  O52  1  0.86327636  0.56579214  0.58936530  1
  O  O53  1  0.04751470  0.72520423  0.12750167  1
  Ti  Ti54  1  0.94680202  0.62583119  0.36216155  1
  Zn  Zn55  1  0.78714019  0.13683671  0.42796957  1
