# generated using pymatgen
data_K3RbBaTbU9Si2Ni2Te10As2P5PdRhAu(NCl)2
_symmetry_space_group_name_H-M   'P 1'
_cell_length_a   4.07229900
_cell_length_b   4.32061529
_cell_length_c   4.85554743
_cell_angle_alpha   93.07030487
_cell_angle_beta   88.81633759
_cell_angle_gamma   97.76748657
_symmetry_Int_Tables_number   1
_chemical_formula_structural   K3RbBaTbU9Si2Ni2Te10As2P5PdRhAu(NCl)2
_chemical_formula_sum
'K3 Rb1 Ba1 Tb1 U9 Si2 Ni2 Te10 As2 P5 Pd1 Rh1 Au1 N2 Cl2'
_cell_volume   84.51941569
_cell_formula_units_Z   1
loop_
 _symmetry_equiv_pos_site_id
 _symmetry_equiv_pos_as_xyz
  1  'x, y, z'
loop_
 _atom_site_type_symbol
 _atom_site_label
 _atom_site_symmetry_multiplicity
 _atom_site_fract_x
 _atom_site_fract_y
 _atom_site_fract_z
 _atom_site_occupancy
  Tb  Tb0  1  0.02089058  0.17007823  0.93894857  1
  Si  Si1  1  0.52568865  0.67754847  0.18008994  1
  Ni  Ni2  1  0.52510625  0.17434792  0.43604666  1
  Si  Si3  1  0.52541065  0.67541236  0.68940699  1
  Ni  Ni4  1  0.02266891  0.67209285  0.43708709  1
  As  As5  1  0.12659150  0.04826168  0.53952825  1
  K  K6  1  0.62397206  0.11903381  0.89551455  1
  Au  Au7  1  0.61975616  0.11466099  0.39438194  1
  K  K8  1  0.11440314  0.55049992  0.61859721  1
  K  K9  1  0.13163432  0.68348718  0.17034602  1
  As  As10  1  0.11809845  0.18843538  0.25985849  1
  Cl  Cl11  1  0.62096781  0.62044477  0.89490294  1
  N  N12  1  0.52199113  0.00706597  0.70122772  1
  Cl  Cl13  1  0.92582774  0.60590261  0.20030195  1
  Ba  Ba14  1  0.92674613  0.60170794  0.69942284  1
  Rb  Rb15  1  0.43085501  0.09935036  0.19686860  1
  N  N16  1  0.32892182  0.19827633  0.69640130  1
  Rh  Rh17  1  0.91323489  0.30481154  0.91373700  1
  P  P18  1  0.10778931  0.61730957  0.61664367  1
  P  P19  1  0.19638440  0.02161521  0.94026935  1
  U  U20  1  0.56878358  0.65441221  0.92728138  1
  P  P21  1  0.61344808  0.12115288  0.61053056  1
  P  P22  1  0.10629639  0.61312634  0.23817343  1
  Pd  Pd23  1  0.60799289  0.62150937  0.43049574  1
  U  U24  1  0.10938190  0.11149739  0.42770204  1
  P  P25  1  0.61656106  0.12898731  0.22485672  1
  Te  Te26  1  0.94467598  0.39064941  0.94766468  1
  Te  Te27  1  0.18952592  0.45346645  0.35109591  1
  Te  Te28  1  0.19196616  0.78995478  0.01891372  1
  Te  Te29  1  0.44146523  0.85143679  0.41597077  1
  U  U30  1  0.44007495  0.11406319  0.29256737  1
  Te  Te31  1  0.43414474  0.38129270  0.67993611  1
  Te  Te32  1  0.68964475  0.45253205  0.34894967  1
  U  U33  1  0.93540746  0.51164174  0.68642783  1
  U  U34  1  0.44117397  0.72602135  0.68487883  1
  U  U35  1  0.94104320  0.72982466  0.29357821  1
  Te  Te36  1  0.94804215  0.85620385  0.68669724  1
  Te  Te37  1  0.68973505  0.78479880  0.01707256  1
  Te  Te38  1  0.43604383  0.11565562  0.94641423  1
  U  U39  1  0.43928766  0.50533807  0.06764391  1
  Te  Te40  1  0.94487566  0.12254325  0.42018136  1
  U  U41  1  0.69138658  0.11890642  0.68365729  1
  U  U42  1  0.93643713  0.11989362  0.07378613  1
