# generated using pymatgen
data_CsK9Na2Sr2CaLaSmNbVSi6BiW3(O20F)2
_symmetry_space_group_name_H-M   'P 1'
_cell_length_a   4.15510988
_cell_length_b   7.13186741
_cell_length_c   9.11912632
_cell_angle_alpha   106.39878082
_cell_angle_beta   105.92355347
_cell_angle_gamma   89.44393921
_symmetry_Int_Tables_number   1
_chemical_formula_structural   CsK9Na2Sr2CaLaSmNbVSi6BiW3(O20F)2
_chemical_formula_sum
'Cs1 K9 Na2 Sr2 Ca1 La1 Sm1 Nb1 V1 Si6 Bi1 W3 O40 F2'
_cell_volume   248.61965617
_cell_formula_units_Z   1
loop_
 _symmetry_equiv_pos_site_id
 _symmetry_equiv_pos_as_xyz
  1  'x, y, z'
loop_
 _atom_site_type_symbol
 _atom_site_label
 _atom_site_symmetry_multiplicity
 _atom_site_fract_x
 _atom_site_fract_y
 _atom_site_fract_z
 _atom_site_occupancy
  K  K0  1  0.77792495  0.41635686  0.38017181  1
  O  O1  1  0.60888517  0.36556038  0.01851813  1
  O  O2  1  0.96276134  0.46593145  0.73332429  1
  Sr  Sr3  1  0.11971200  0.58198518  0.04065870  1
  O  O4  1  0.28940153  0.12244277  0.39707762  1
  La  La5  1  0.77901083  0.91735357  0.37273377  1
  Sr  Sr6  1  0.44747475  0.25147995  0.71134883  1
  O  O7  1  0.26457524  0.70693499  0.35799050  1
  K  K8  1  0.43815464  0.75249887  0.70712268  1
  O  O9  1  0.92650765  0.02248808  0.66476458  1
  K  K10  1  0.11053771  0.08545659  0.03655560  1
  O  O11  1  0.63169062  0.81023145  0.08079813  1
  V  V12  1  0.62299067  0.02669364  0.98346704  1
  O  O13  1  0.24366356  0.59687841  0.27636760  1
  O  O14  1  0.52560478  0.97491002  0.16199994  1
  Si  Si15  1  0.47788885  0.78047782  0.29209512  1
  Si  Si16  1  0.98438191  0.57377625  0.38400695  1
  O  O17  1  0.94278049  0.81392813  0.49383718  1
  O  O18  1  0.89154881  0.80834007  0.89969850  1
  O  O19  1  0.74194813  0.58014035  0.29396555  1
  Na  Na20  1  0.02720262  0.50370711  0.05134308  1
  Si  Si21  1  0.11305907  0.03431208  0.51583105  1
  O  O22  1  0.12474830  0.05029583  0.67985076  1
  O  O23  1  0.83132344  0.24725328  0.92225766  1
  O  O24  1  0.99118894  0.30785546  0.46777564  1
  Si  Si25  1  0.05388136  0.04094403  0.84952885  1
  O  O26  1  0.40547842  0.95997715  0.43512458  1
  Cs  Cs27  1  0.55256468  0.56234753  0.71905655  1
  O  O28  1  0.33221626  0.04750254  0.89852577  1
  K  K29  1  0.73731560  0.61117613  0.55397373  1
  Nb  Nb30  1  0.23656753  0.61515707  0.81369436  1
  O  O31  1  0.47832075  0.86015648  0.81910866  1
  O  O32  1  0.74422228  0.11407443  0.55979759  1
  K  K33  1  0.24132569  0.11868424  0.06723546  1
  Bi  Bi34  1  0.73762006  0.11614514  0.81645364  1
  O  O35  1  0.96866959  0.34173587  0.31295258  1
  O  O36  1  0.51246679  0.89144140  0.31005144  1
  O  O37  1  0.24387655  0.61327446  0.02502744  1
  O  O38  1  0.24318077  0.60754263  0.59940469  1
  O  O39  1  0.74283838  0.12078931  0.06478313  1
  O  O40  1  0.48740083  0.37156078  0.81289881  1
  K  K41  1  0.24171026  0.11299673  0.55972892  1
  O  O42  1  0.00141362  0.36782172  0.81664199  1
  O  O43  1  0.00114965  0.85924554  0.81247246  1
  Na  Na44  1  0.24016829  0.61636609  0.31126159  1
  K  K45  1  0.74367762  0.62059468  0.07064793  1
  O  O46  1  0.96029603  0.89157546  0.30822778  1
  O  O47  1  0.51748919  0.34159401  0.31571791  1
  W  W48  1  0.74380738  0.11489487  0.31343219  1
  O  O49  1  0.37933397  0.56308198  0.45497862  1
  O  O50  1  0.64327830  0.99199969  0.98200142  1
  W  W51  1  0.36966750  0.97653711  0.25241429  1
  O  O52  1  0.27375609  0.38055408  0.04301915  1
  Ca  Ca53  1  0.00982046  0.74936354  0.05605301  1
  O  O54  1  0.93173432  0.46286663  0.52705407  1
  O  O55  1  0.83059138  0.44284102  0.03988183  1
  W  W56  1  0.08367684  0.44338265  0.76414883  1
  Sm  Sm57  1  0.70387363  0.21335584  0.51668644  1
  O  O58  1  0.50836229  0.96128714  0.48810875  1
  O  O59  1  0.18869025  0.05566714  0.97577053  1
  O  O60  1  0.05401534  0.88670820  0.55900300  1
  Si  Si61  1  0.85937953  0.22846216  0.70422465  1
  F  F62  1  0.82511961  0.39501768  0.86692494  1
  O  O63  1  0.69010353  0.36874354  0.48614478  1
  O  O64  1  0.31406790  0.74167615  0.37154430  1
  K  K65  1  0.82519275  0.98498464  0.25955468  1
  K  K66  1  0.32054105  0.70339811  0.83171308  1
  O  O67  1  0.18897726  0.25760484  0.62196451  1
  O  O68  1  0.78744692  0.95514095  0.83945370  1
  F  F69  1  0.30746093  0.34682113  0.22006610  1
  Si  Si70  1  0.37540442  0.44164914  0.42847878  1
