# generated using pymatgen
data_CsK5SrLi3TmMgScTi2MnCuP2H2WClO19F10
_symmetry_space_group_name_H-M   'P 1'
_cell_length_a   5.98933172
_cell_length_b   6.34596920
_cell_length_c   7.88683271
_cell_angle_alpha   82.46167755
_cell_angle_beta   93.14611816
_cell_angle_gamma   90.42332458
_symmetry_Int_Tables_number   1
_chemical_formula_structural   CsK5SrLi3TmMgScTi2MnCuP2H2WClO19F10
_chemical_formula_sum
'Cs1 K5 Sr1 Li3 Tm1 Mg1 Sc1 Ti2 Mn1 Cu1 P2 H2 W1 Cl1 O19 F10'
_cell_volume   296.72498676
_cell_formula_units_Z   1
loop_
 _symmetry_equiv_pos_site_id
 _symmetry_equiv_pos_as_xyz
  1  'x, y, z'
loop_
 _atom_site_type_symbol
 _atom_site_label
 _atom_site_symmetry_multiplicity
 _atom_site_fract_x
 _atom_site_fract_y
 _atom_site_fract_z
 _atom_site_occupancy
  Ti  Ti0  1  0.44073340  0.97846109  0.31801841  1
  Ti  Ti1  1  0.94511718  0.59109133  0.82613289  1
  O  O2  1  0.27176067  0.06671246  0.49537119  1
  K  K3  1  0.93603015  0.60660511  0.33558616  1
  K  K4  1  0.44882557  0.46891490  0.57070416  1
  K  K5  1  0.43965077  0.95775533  0.81764168  1
  K  K6  1  0.93389958  0.10639570  0.07301152  1
  O  O7  1  0.37952104  0.69106311  0.26456654  1
  O  O8  1  0.88447315  0.40424305  0.64931333  1
  O  O9  1  0.77544761  0.50678098  0.01767650  1
  O  O10  1  0.39103618  0.16268417  0.12229496  1
  O  O11  1  0.88282293  0.86956573  0.77534866  1
  Mn  Mn12  1  0.94791371  0.08549609  0.57789469  1
  Sc  Sc13  1  0.44406545  0.47922397  0.07406645  1
  O  O14  1  0.73465455  0.99851334  0.38097659  1
  O  O15  1  0.25095144  0.56646258  0.87795848  1
  O  O16  1  0.58134419  0.96345156  0.22478113  1
  O  O17  1  0.58742213  0.46641007  0.72520781  1
  Mg  Mg18  1  0.58623075  0.45993388  0.22932702  1
  Sr  Sr19  1  0.08026055  0.96000284  0.72095883  1
  O  O20  1  0.08450577  0.46479666  0.21833354  1
  Li  Li21  1  0.96658343  0.70078450  0.18782705  1
  P  P22  1  0.04844084  0.26435363  0.78551209  1
  O  O23  1  0.93209738  0.00473354  0.87895489  1
  P  P24  1  0.40501648  0.86949790  0.38330901  1
  O  O25  1  0.52611107  0.13277657  0.30188471  1
  O  O26  1  0.95370048  0.42332590  0.95791817  1
  O  O27  1  0.53117973  0.70082331  0.21895793  1
  H  H28  1  0.44457445  0.52010286  0.71923941  1
  Cu  Cu29  1  0.89024776  0.18432318  0.30272377  1
  H  H30  1  0.47907108  0.51210886  0.24973395  1
  O  O31  1  0.11543804  0.89328456  0.36696431  1
  O  O32  1  0.97812706  0.39061975  0.50334036  1
  O  O33  1  0.47983408  0.72381961  0.65307850  1
  Li  Li34  1  0.58639055  0.93375838  0.85072953  1
  O  O35  1  0.34650058  0.24331112  0.77441710  1
  Cs  Cs36  1  0.09466152  0.11717104  0.58849013  1
  F  F37  1  0.72390997  0.72746116  0.19595248  1
  Cl  Cl38  1  0.38596091  0.39065897  0.85875881  1
  F  F39  1  0.74275386  0.76635933  0.68292934  1
  F  F40  1  0.73941195  0.22050337  0.22419474  1
  Tm  Tm41  1  0.56898111  0.58456922  0.03942174  1
  F  F42  1  0.20979887  0.75151086  0.21748638  1
  Li  Li43  1  0.85784096  0.86285472  0.32385337  1
  F  F44  1  0.03836059  0.10831685  0.80062073  1
  F  F45  1  0.05348221  0.76397008  0.13301569  1
  F  F46  1  0.60271215  0.56764221  0.91312474  1
  W  W47  1  0.31529352  0.83755493  0.85756874  1
  F  F48  1  0.22693323  0.56749111  0.60078156  1
  K  K49  1  0.82187343  0.33931503  0.35657358  1
  F  F50  1  0.40867218  0.11008971  0.11645456  1
  F  F51  1  0.58925092  0.91618133  0.58610380  1
