# generated using pymatgen
data_K2Na3LiCaLa2YMg2UAl4Cd2InSiSn2GeAs2Se4S14N16O3
_symmetry_space_group_name_H-M   'P 1'
_cell_length_a   5.14198351
_cell_length_b   6.12207842
_cell_length_c   6.60817671
_cell_angle_alpha   84.47502899
_cell_angle_beta   82.72527313
_cell_angle_gamma   85.29515076
_symmetry_Int_Tables_number   1
_chemical_formula_structural
K2Na3LiCaLa2YMg2UAl4Cd2InSiSn2GeAs2Se4S14N16O3
_chemical_formula_sum
;
K2 Na3 Li1 Ca1 La2 Y1 Mg2 U1 Al4 Cd2 In1 Si1 Sn2 Ge1 As2 Se4 S14 N16
O3
;
_cell_volume   204.87545568
_cell_formula_units_Z   1
loop_
 _symmetry_equiv_pos_site_id
 _symmetry_equiv_pos_as_xyz
  1  'x, y, z'
loop_
 _atom_site_type_symbol
 _atom_site_label
 _atom_site_symmetry_multiplicity
 _atom_site_fract_x
 _atom_site_fract_y
 _atom_site_fract_z
 _atom_site_occupancy
  Se  Se0  1  0.58850628  0.74668777  0.00472647  1
  Se  Se1  1  0.03855062  0.75896716  0.52690524  1
  In  In2  1  0.31392223  0.98062414  0.26671609  1
  Sn  Sn3  1  0.82826757  0.48749846  0.26773381  1
  Se  Se4  1  0.59071618  0.20978838  0.51971000  1
  Cd  Cd5  1  0.31557745  0.47990707  0.76017016  1
  Se  Se6  1  0.03622591  0.20748030  0.00272713  1
  Mg  Mg7  1  0.36146101  0.06830365  0.32848397  1
  O  O8  1  0.87936282  0.83273160  0.38473082  1
  Mg  Mg9  1  0.36426467  0.06417097  0.89075035  1
  Sn  Sn10  1  0.86231923  0.50684261  0.52599859  1
  S  S11  1  0.36830318  0.20924577  0.60907537  1
  S  S12  1  0.86717308  0.38771629  0.92674017  1
  S  S13  1  0.86769396  0.74821413  0.80061460  1
  O  O14  1  0.36104989  0.92384404  0.11250971  1
  Cd  Cd15  1  0.83128637  0.67068398  0.15606062  1
  O  O16  1  0.86468929  0.31932259  0.31986061  1
  S  S17  1  0.72829652  0.82670426  0.14927852  1
  S  S18  1  0.02143198  0.97489750  0.37598291  1
  S  S19  1  0.02479649  0.40208355  0.44089878  1
  U  U20  1  0.93176639  0.68538070  0.55372500  1
  Na  Na21  1  0.22719552  0.58176577  0.20329961  1
  S  S22  1  0.44215208  0.68362933  0.51175183  1
  Na  Na23  1  0.34344965  0.12001315  0.69917029  1
  As  As24  1  0.87217069  0.41970593  0.89937603  1
  Na  Na25  1  0.23601975  0.08214789  0.15505698  1
  Ge  Ge26  1  0.79094857  0.86669165  0.96998549  1
  S  S27  1  0.86256313  0.91782683  0.67081535  1
  S  S28  1  0.53033870  0.63858616  0.93058705  1
  S  S29  1  0.41308519  0.08135757  0.91860920  1
  S  S30  1  0.89369595  0.41789645  0.71510464  1
  S  S31  1  0.72772515  0.32787174  0.20499183  1
  As  As32  1  0.71151149  0.22527796  0.38076657  1
  N  N33  1  0.59851676  0.58101994  0.83435750  1
  Li  Li34  1  0.55104119  0.52870184  0.44106466  1
  N  N35  1  0.27455294  0.74658453  0.41917479  1
  K  K36  1  0.92360103  0.16258636  0.47182316  1
  N  N37  1  0.00205374  0.67800832  0.43402934  1
  Ca  Ca38  1  0.16296773  0.71110231  0.10942682  1
  N  N39  1  0.61524630  0.70067531  0.99438870  1
  N  N40  1  0.17961454  0.21635322  0.09444260  1
  N  N41  1  0.05894619  0.28460801  0.98117340  1
  K  K42  1  0.43746334  0.01474473  0.79670024  1
  N  N43  1  0.56865329  0.44643065  0.68159503  1
  N  N44  1  0.32322001  0.16279875  0.21025503  1
  N  N45  1  0.12152182  0.41664943  0.69546872  1
  Si  Si46  1  0.14635246  0.04983303  0.18566039  1
  La  La47  1  0.32872424  0.19056168  0.77871042  1
  La  La48  1  0.07941505  0.61421740  0.29685903  1
  N  N49  1  0.61779946  0.11063003  0.55884612  1
  S  S50  1  0.68214935  0.53084505  0.01298837  1
  N  N51  1  0.47561088  0.89060783  0.82591748  1
  Al  Al52  1  0.52235919  0.43531558  0.23757154  1
  S  S53  1  0.95809114  0.81776559  0.66855925  1
  Al  Al54  1  0.20480664  0.70860249  0.82009739  1
  N  N55  1  0.23499106  0.27199432  0.13151923  1
  Al  Al56  1  0.88917309  0.24940141  0.50469214  1
  N  N57  1  0.98535240  0.01023757  0.34012401  1
  Al  Al58  1  0.60418046  0.87226444  0.60642475  1
  N  N59  1  0.47856963  0.68249387  0.37437353  1
  N  N60  1  0.75197726  0.30927962  0.30167329  1
  N  N61  1  0.21704778  0.82137406  0.08616719  1
  Y  Y62  1  0.59387457  0.91167235  0.18093725  1
