# generated using pymatgen
data_Ba3SrLa2NdGd2Er2InGa5Sn2B2PPt2PbC2S13I4(NO)2
_symmetry_space_group_name_H-M   'P 1'
_cell_length_a   5.11456823
_cell_length_b   5.07620716
_cell_length_c   7.05868673
_cell_angle_alpha   70.18124390
_cell_angle_beta   69.13948822
_cell_angle_gamma   60.55068588
_symmetry_Int_Tables_number   1
_chemical_formula_structural
Ba3SrLa2NdGd2Er2InGa5Sn2B2PPt2PbC2S13I4(NO)2
_chemical_formula_sum
'Ba3 Sr1 La2 Nd1 Gd2 Er2 In1 Ga5 Sn2 B2 P1 Pt2 Pb1 C2 S13 I4 N2 O2'
_cell_volume   146.06315454
_cell_formula_units_Z   1
loop_
 _symmetry_equiv_pos_site_id
 _symmetry_equiv_pos_as_xyz
  1  'x, y, z'
loop_
 _atom_site_type_symbol
 _atom_site_label
 _atom_site_symmetry_multiplicity
 _atom_site_fract_x
 _atom_site_fract_y
 _atom_site_fract_z
 _atom_site_occupancy
  Gd  Gd0  1  0.36035109  0.95185137  0.47978318  1
  Gd  Gd1  1  0.86161286  0.44835463  0.98026502  1
  Pt  Pt2  1  0.59877235  0.20628622  0.73008364  1
  S  S3  1  0.48448309  0.08479714  0.08801970  1
  S  S4  1  0.98543781  0.58601731  0.59377819  1
  Pt  Pt5  1  0.10831114  0.70205557  0.23503435  1
  S  S6  1  0.22439651  0.82974404  0.86403292  1
  S  S7  1  0.73472154  0.32066619  0.36218435  1
  B  B8  1  0.63668597  0.68815619  0.34852552  1
  S  S9  1  0.12387953  0.34062496  0.78944933  1
  S  S10  1  0.48095563  0.40757322  0.99231714  1
  S  S11  1  0.60701251  0.98554689  0.75720304  1
  Pb  Pb12  1  0.20211014  0.78929538  0.83665705  1
  S  S13  1  0.78580117  0.88648129  0.23939006  1
  S  S14  1  0.31589419  0.78352535  0.44572487  1
  Sn  Sn15  1  0.46400553  0.21841286  0.43006474  1
  B  B16  1  0.39584908  0.24205889  0.85924762  1
  S  S17  1  0.81339401  0.40336695  0.37950882  1
  O  O18  1  0.23712473  0.77719432  0.84275323  1
  P  P19  1  0.56539893  0.08895169  0.84257638  1
  La  La20  1  0.24781404  0.43321493  0.60336858  1
  O  O21  1  0.52014768  0.36672202  0.84625918  1
  S  S22  1  0.32493931  0.42593473  0.23729032  1
  In  In23  1  0.56382692  0.08839314  0.34023634  1
  S  S24  1  0.98312670  0.75146908  0.44340277  1
  N  N25  1  0.69223011  0.06745096  0.64962679  1
  La  La26  1  0.90928733  0.73704648  0.07452114  1
  N  N27  1  0.70882034  0.09751494  0.03258902  1
  Er  Er28  1  0.74215364  0.42112094  0.86864060  1
  Er  Er29  1  0.75916207  0.42136109  0.37414205  1
  Sn  Sn30  1  0.75367856  0.92133260  0.12328816  1
  Ga  Ga31  1  0.24680670  0.93165988  0.84983104  1
  Ga  Ga32  1  0.75114691  0.92261189  0.62091583  1
  Ga  Ga33  1  0.25531441  0.41850728  0.12127651  1
  Ga  Ga34  1  0.24914010  0.42758968  0.62490588  1
  Ga  Ga35  1  0.25670779  0.91570884  0.39835325  1
  I  I36  1  0.73576164  0.17656922  0.54976708  1
  S  S37  1  0.97195727  0.63848650  0.73271328  1
  Ba  Ba38  1  0.20700271  0.12194268  0.75294751  1
  Sr  Sr39  1  0.27869242  0.25534043  0.37051111  1
  C  C40  1  0.79068488  0.27497154  0.89171642  1
  Ba  Ba41  1  0.47858465  0.64513141  0.58255649  1
  Ba  Ba42  1  0.19448012  0.07670525  0.01176257  1
  I  I43  1  0.00363031  0.70748430  0.38623837  1
  Nd  Nd44  1  0.45939746  0.61503905  0.86500871  1
  C  C45  1  0.67307389  0.04902875  0.87871808  1
  I  I46  1  0.74532062  0.17714822  0.21145390  1
  I  I47  1  0.46481988  0.62999064  0.06677569  1
