# generated using pymatgen
data_K2Na2La3YbBe3Al3ZnCd2InCoSnGeBi2As4Ru2Se4S17N12O
_symmetry_space_group_name_H-M   'P 1'
_cell_length_a   5.14198351
_cell_length_b   6.12207842
_cell_length_c   6.60817671
_cell_angle_alpha   84.47502899
_cell_angle_beta   82.72527313
_cell_angle_gamma   85.29515076
_symmetry_Int_Tables_number   1
_chemical_formula_structural
K2Na2La3YbBe3Al3ZnCd2InCoSnGeBi2As4Ru2Se4S17N12O
_chemical_formula_sum
;
K2 Na2 Yb1 La3 Be3 Al3 Zn1 Cd2 In1 Co1 Sn1 Ge1 Bi2 As4 Ru2 Se4 S17 N12
O1
;
_cell_volume   204.87545568
_cell_formula_units_Z   1
loop_
 _symmetry_equiv_pos_site_id
 _symmetry_equiv_pos_as_xyz
  1  'x, y, z'
loop_
 _atom_site_type_symbol
 _atom_site_label
 _atom_site_symmetry_multiplicity
 _atom_site_fract_x
 _atom_site_fract_y
 _atom_site_fract_z
 _atom_site_occupancy
  Se  Se0  1  0.34447664  0.99805522  0.09147991  1
  Se  Se1  1  0.89172745  0.00006258  0.62888265  1
  Sn  Sn2  1  0.12187462  0.26584041  0.36917138  1
  Cd  Cd3  1  0.61385798  0.76036280  0.36367214  1
  Se  Se4  1  0.89716047  0.51871032  0.09232572  1
  Se  Se5  1  0.32725495  0.52857882  0.63476384  1
  In  In6  1  0.60918039  0.25940201  0.86308575  1
  Be  Be7  1  0.28627640  0.58205014  0.25215885  1
  Zn  Zn8  1  0.90337652  0.18616290  0.05820296  1
  Cd  Cd9  1  0.06716199  0.39026624  0.64966494  1
  Be  Be10  1  0.47039083  0.79244757  0.85450506  1
  S  S11  1  0.20491804  0.21513152  0.42311090  1
  S  S12  1  0.57364386  0.71094543  0.64954287  1
  S  S13  1  0.76629537  0.79444408  0.26933867  1
  S  S14  1  0.40044293  0.46783409  0.05021489  1
  S  S15  1  0.97065461  0.99966294  0.86241388  1
  Be  Be16  1  0.69531149  0.99047959  0.43227309  1
  Bi  Bi17  1  0.16377723  0.82575935  0.73417562  1
  Yb  Yb18  1  0.84360510  0.33627284  0.77087218  1
  As  As19  1  0.33418646  0.56963623  0.44086763  1
  S  S20  1  0.32843477  0.52821082  0.64312398  1
  S  S21  1  0.51388168  0.11019571  0.68132299  1
  S  S22  1  0.08165985  0.34040245  0.47393408  1
  Na  Na23  1  0.60927039  0.51980817  0.06663080  1
  S  S24  1  0.94636405  0.11336715  0.18885098  1
  S  S25  1  0.65394872  0.66963673  0.83770430  1
  S  S26  1  0.93374699  0.00898265  0.90994722  1
  As  As27  1  0.26368964  0.07002870  0.02748334  1
  As  As28  1  0.48441753  0.13117325  0.50006890  1
  S  S29  1  0.25687972  0.33946133  0.94060677  1
  As  As30  1  0.74769878  0.84650677  0.27008671  1
  S  S31  1  0.02149383  0.65772289  0.18893743  1
  S  S32  1  0.92031252  0.79297698  0.45799378  1
  Co  Co33  1  0.62161863  0.36034623  0.86967093  1
  K  K34  1  0.34483367  0.87211579  0.01717132  1
  N  N35  1  0.59644741  0.59510523  0.78636914  1
  Ru  Ru36  1  0.16374217  0.35852507  0.24745351  1
  N  N37  1  0.04474290  0.95504183  0.69999892  1
  K  K38  1  0.85984969  0.31215400  0.55189109  1
  N  N39  1  0.46454310  0.66331589  0.40776703  1
  N  N40  1  0.87286276  0.41322124  0.08659612  1
  Na  Na41  1  0.97487295  0.76290250  0.36917698  1
  N  N42  1  0.10623517  0.08973479  0.28553054  1
  Ru  Ru43  1  0.62917173  0.80890405  0.66899645  1
  N  N44  1  0.36243060  0.02329184  0.72387266  1
  La  La45  1  0.65454447  0.76094735  0.31018656  1
  Bi  Bi46  1  0.53711492  0.66137701  0.74120504  1
  N  N47  1  0.67516655  0.15007384  0.39890993  1
  La  La48  1  0.16432109  0.05485187  0.79781479  1
  S  S49  1  0.87777966  0.97420460  0.06721395  1
  Al  Al50  1  0.75484067  0.24614301  0.20264512  1
  O  O51  1  0.06740957  0.90787697  0.48151863  1
  S  S52  1  0.32161525  0.79789060  0.04943378  1
  N  N53  1  0.97164321  0.30268312  0.80877554  1
  N  N54  1  0.35738662  0.59642589  0.47895753  1
  N  N55  1  0.94375873  0.49833488  0.22422206  1
  Al  Al56  1  0.05621130  0.51662731  0.02268161  1
  N  N57  1  0.87237847  0.61962819  0.62419522  1
  La  La58  1  0.28032729  0.17165369  0.36657524  1
  Ge  Ge59  1  0.76966959  0.33009484  0.63544261  1
  N  N60  1  0.48065913  0.31126949  0.69210392  1
  S  S61  1  0.45712405  0.33134112  0.10468855  1
  Al  Al62  1  0.07508174  0.64708608  0.45570496  1
