# generated using pymatgen
data_CsKRb2LiCeGdYHoMgTi2Tl2ZnCoCu2GeBSbPW2S2I2NO27
_symmetry_space_group_name_H-M   'P 1'
_cell_length_a   6.19659805
_cell_length_b   6.36089897
_cell_length_c   8.49795151
_cell_angle_alpha   93.65718842
_cell_angle_beta   93.44322205
_cell_angle_gamma   90.87302399
_symmetry_Int_Tables_number   1
_chemical_formula_structural
CsKRb2LiCeGdYHoMgTi2Tl2ZnCoCu2GeBSbPW2S2I2NO27
_chemical_formula_sum
;
Cs1 Rb2 K1 Li1 Ce1 Gd1 Y1 Ho1 Mg1 Ti2 Tl2 Zn1 Co1 Cu2 Ge1 B1 Sb1 P1 W2
S2 I2 N1 O27
;
_cell_volume   333.60802437
_cell_formula_units_Z   1
loop_
 _symmetry_equiv_pos_site_id
 _symmetry_equiv_pos_as_xyz
  1  'x, y, z'
loop_
 _atom_site_type_symbol
 _atom_site_label
 _atom_site_symmetry_multiplicity
 _atom_site_fract_x
 _atom_site_fract_y
 _atom_site_fract_z
 _atom_site_occupancy
  Ce  Ce0  1  0.30007464  0.25996614  0.17365918  1
  Rb  Rb1  1  0.55241984  0.00761482  0.71567917  1
  Y  Y2  1  0.80467325  0.76014727  0.16832571  1
  O  O3  1  0.05066231  0.51536077  0.14863080  1
  O  O4  1  0.54755759  0.01250574  0.15672599  1
  Cu  Cu5  1  0.30109915  0.76290989  0.06430703  1
  S  S6  1  0.55642420  0.51472992  0.95042819  1
  I  I7  1  0.04494040  0.00568353  0.45371699  1
  Rb  Rb8  1  0.04940655  0.50949752  0.72523928  1
  S  S9  1  0.04493214  0.00844603  0.94788098  1
  Cu  Cu10  1  0.79885513  0.25876099  0.06525269  1
  I  I11  1  0.55669159  0.51703644  0.46066248  1
  O  O12  1  0.85490245  0.60239887  0.95536917  1
  O  O13  1  0.63979632  0.27762347  0.93903953  1
  O  O14  1  0.16080807  0.07391050  0.94987130  1
  W  W15  1  0.83191246  0.25562617  0.12830618  1
  Cs  Cs16  1  0.32044765  0.74324149  0.68588746  1
  Gd  Gd17  1  0.50689274  0.91835004  0.09942210  1
  O  O18  1  0.08519593  0.13917835  0.30299681  1
  K  K19  1  0.01827278  0.44853118  0.52245992  1
  O  O20  1  0.74255472  0.93451738  0.29358241  1
  O  O21  1  0.52431893  0.47874683  0.29576010  1
  W  W22  1  0.53815508  0.51622987  0.18473084  1
  O  O23  1  0.03564510  0.01818316  0.69108444  1
  O  O24  1  0.53165096  0.27884492  0.41103965  1
  O  O25  1  0.54331028  0.75096411  0.41023898  1
  Ho  Ho26  1  0.53775847  0.01404243  0.68392551  1
  Tl  Tl27  1  0.03759491  0.02068879  0.18878439  1
  O  O28  1  0.53137261  0.29239988  0.96782291  1
  Tl  Tl29  1  0.04241928  0.51984596  0.68497688  1
  O  O30  1  0.54499799  0.75576848  0.96292520  1
  O  O31  1  0.79117805  0.32436693  0.46826741  1
  N  N32  1  0.00699986  0.69820529  0.32270068  1
  P  P33  1  0.84465379  0.62757635  0.49966824  1
  Mg  Mg34  1  0.78017110  0.09161913  0.05982525  1
  B  B35  1  0.21763223  0.61706591  0.11163092  1
  O  O36  1  0.69261426  0.86744660  0.69151688  1
  Li  Li37  1  0.31052494  0.14662218  0.58451456  1
  O  O38  1  0.28983682  0.86471409  0.08910415  1
  O  O39  1  0.29641864  0.33752757  0.97302288  1
  O  O40  1  0.67338222  0.07010303  0.34909314  1
  Co  Co41  1  0.73239225  0.74569029  0.85927212  1
  O  O42  1  0.39957443  0.24379840  0.00884899  1
  Ti  Ti43  1  0.27033049  0.56564665  0.14720622  1
  O  O44  1  0.97992688  0.77527761  0.69411051  1
  O  O45  1  0.40572625  0.74047750  0.99108809  1
  Sb  Sb46  1  0.36312032  0.13174158  0.48491797  1
  O  O47  1  0.47369793  0.92730528  0.70374972  1
  O  O48  1  0.90530896  0.50859725  0.00132732  1
  O  O49  1  0.60587901  0.53249007  0.29884213  1
  Zn  Zn50  1  0.85298467  0.78492421  0.42786375  1
  Ge  Ge51  1  0.22200267  0.97277182  0.87113672  1
  Ti  Ti52  1  0.77812129  0.26976103  0.15336274  1
  O  O53  1  0.91862971  0.01806434  0.00193453  1
  O  O54  1  0.18114826  0.83218443  0.32568520  1
  O  O55  1  0.09718820  0.36987567  0.30939025  1
