# generated using pymatgen
data_K2Na3La3ScU2PaBe2Al2Zn3Cd2BiBAs2PRu2PtSe4(S3N2)6
_symmetry_space_group_name_H-M   'P 1'
_cell_length_a   5.14198351
_cell_length_b   6.12207842
_cell_length_c   6.60817671
_cell_angle_alpha   84.47502899
_cell_angle_beta   82.72527313
_cell_angle_gamma   85.29515076
_symmetry_Int_Tables_number   1
_chemical_formula_structural
K2Na3La3ScU2PaBe2Al2Zn3Cd2BiBAs2PRu2PtSe4(S3N2)6
_chemical_formula_sum
;
K2 Na3 La3 Sc1 U2 Pa1 Be2 Al2 Zn3 Cd2 Bi1 B1 As2 P1 Ru2 Pt1 Se4 S18
N12
;
_cell_volume   204.87545568
_cell_formula_units_Z   1
loop_
 _symmetry_equiv_pos_site_id
 _symmetry_equiv_pos_as_xyz
  1  'x, y, z'
loop_
 _atom_site_type_symbol
 _atom_site_label
 _atom_site_symmetry_multiplicity
 _atom_site_fract_x
 _atom_site_fract_y
 _atom_site_fract_z
 _atom_site_occupancy
  Cd  Cd0  1  0.17067730  0.70634156  0.64860141  1
  Pt  Pt1  1  0.47242647  0.71421874  0.17499328  1
  Se  Se2  1  0.17140388  0.40429837  0.32724309  1
  Se  Se3  1  0.65798646  0.49623582  0.83936656  1
  Se  Se4  1  0.18162671  0.99758035  0.97839689  1
  Se  Se5  1  0.67691517  0.91778886  0.47744873  1
  Pa  Pa6  1  0.67568427  0.20116258  0.14696246  1
  Be  Be7  1  0.10166973  0.98844081  0.91251975  1
  S  S8  1  0.81339443  0.96268594  0.51416558  1
  S  S9  1  0.01152677  0.12927537  0.09818720  1
  S  S10  1  0.39540637  0.51661742  0.33074400  1
  Zn  Zn11  1  0.91333061  0.78802449  0.31685728  1
  S  S12  1  0.60156804  0.76323086  0.91635591  1
  Be  Be13  1  0.31492192  0.18250948  0.51735604  1
  S  S14  1  0.19636427  0.30608985  0.71659058  1
  Zn  Zn15  1  0.69799423  0.58535767  0.72007465  1
  Zn  Zn16  1  0.49626803  0.38572702  0.10921513  1
  S  S17  1  0.01767552  0.61076564  0.63884884  1
  Cd  Cd18  1  0.37458497  0.43868452  0.12730987  1
  S  S19  1  0.70046782  0.75855404  0.06812906  1
  U  U20  1  0.47807398  0.84690487  0.57801598  1
  S  S21  1  0.64962202  0.24158916  0.98296922  1
  S  S22  1  0.79570687  0.70557237  0.77430367  1
  Na  Na23  1  0.90789092  0.33994019  0.46258324  1
  S  S24  1  0.36235687  0.03269727  0.21277636  1
  U  U25  1  0.87181926  0.79246926  0.28144354  1
  Na  Na26  1  0.28881672  0.34148893  0.81180722  1
  S  S27  1  0.86615068  0.46271881  0.24303257  1
  As  As28  1  0.03034866  0.96979600  0.75024724  1
  S  S29  1  0.63504767  0.16069950  0.65537184  1
  S  S30  1  0.37325349  0.64234358  0.40710992  1
  As  As31  1  0.38982633  0.99218524  0.04269619  1
  S  S32  1  0.96847600  0.98349106  0.45199093  1
  B  B33  1  0.95936656  0.99732006  0.88120627  1
  Na  Na34  1  0.25430697  0.72515488  0.56746566  1
  Ru  Ru35  1  0.84000587  0.02467833  0.55587989  1
  K  K36  1  0.60378689  0.27646050  0.21338351  1
  Ru  Ru37  1  0.10713195  0.01909231  0.31747028  1
  N  N38  1  0.05702522  0.20402987  0.85161924  1
  N  N39  1  0.80347878  0.79404581  0.68704820  1
  N  N40  1  0.47099912  0.02278491  0.44590962  1
  N  N41  1  0.99209911  0.97993320  0.06305555  1
  N  N42  1  0.07755592  0.28411251  0.50266296  1
  K  K43  1  0.63587153  0.45681879  0.83126318  1
  N  N44  1  0.83705753  0.76175702  0.31131864  1
  La  La45  1  0.54227000  0.45817742  0.45306349  1
  S  S46  1  0.22862320  0.17724954  0.14913705  1
  Bi  Bi47  1  0.89909446  0.93601370  0.37173042  1
  S  S48  1  0.14123513  0.58379984  0.59525394  1
  Al  Al49  1  0.42043260  0.88064075  0.67864221  1
  N  N50  1  0.70465571  0.52187288  0.79256266  1
  N  N51  1  0.95176142  0.33062142  0.94547588  1
  Al  Al52  1  0.47176519  0.00037670  0.15138683  1
  La  La53  1  0.90258366  0.92621142  0.82996500  1
  S  S54  1  0.29582158  0.73367751  0.25439370  1
  N  N55  1  0.51424962  0.87182313  0.91132861  1
  La  La56  1  0.35401928  0.49763101  0.92684078  1
  N  N57  1  0.72028047  0.17860217  0.31137478  1
  N  N58  1  0.72853327  0.56045198  0.16161332  1
  N  N59  1  0.68220770  0.84748393  0.57228416  1
  Sc  Sc60  1  0.96411878  0.40948725  0.24411580  1
  P  P61  1  0.82159567  0.49665380  0.95922625  1
  S  S62  1  0.27571428  0.13018568  0.63714081  1
