# generated using pymatgen
data_Cs2K4Ba2NaLiCa2ThU2NbFe2Cu3Ag4GeRuRhWCS23(ClO)6
_symmetry_space_group_name_H-M   'P 1'
_cell_length_a   6.16562462
_cell_length_b   6.47381926
_cell_length_c   7.14673281
_cell_angle_alpha   115.88598633
_cell_angle_beta   99.69436646
_cell_angle_gamma   91.25775909
_symmetry_Int_Tables_number   1
_chemical_formula_structural
Cs2K4Ba2NaLiCa2ThU2NbFe2Cu3Ag4GeRuRhWCS23(ClO)6
_chemical_formula_sum
;
Cs2 K4 Ba2 Na1 Li1 Ca2 Th1 U2 Nb1 Fe2 Cu3 Ag4 Ge1 Ru1 Rh1 W1 C1 S23
Cl6 O6
;
_cell_volume   251.50592218
_cell_formula_units_Z   1
loop_
 _symmetry_equiv_pos_site_id
 _symmetry_equiv_pos_as_xyz
  1  'x, y, z'
loop_
 _atom_site_type_symbol
 _atom_site_label
 _atom_site_symmetry_multiplicity
 _atom_site_fract_x
 _atom_site_fract_y
 _atom_site_fract_z
 _atom_site_occupancy
  W  W0  1  0.06751013  0.81449395  0.84087032  1
  Cs  Cs1  1  0.56724030  0.29230705  0.80069041  1
  K  K2  1  0.00497385  0.13743886  0.50143850  1
  C  C3  1  0.71048790  0.62384200  0.47124690  1
  K  K4  1  0.55401945  0.93902534  0.09889725  1
  Cs  Cs5  1  0.16723770  0.50631660  0.23948449  1
  O  O6  1  0.04019627  0.94251370  0.10874286  1
  O  O7  1  0.20720325  0.01002832  0.78180277  1
  O  O8  1  0.77807313  0.73526257  0.69498610  1
  O  O9  1  0.69447929  0.39208481  0.38024962  1
  O  O10  1  0.20471548  0.55130208  0.77291161  1
  O  O11  1  0.68051428  0.75493854  0.37167647  1
  Ag  Ag12  1  0.81416190  0.76616639  0.73635638  1
  S  S13  1  0.91699278  0.64337146  0.40327239  1
  S  S14  1  0.23661464  0.94992769  0.06589560  1
  Ag  Ag15  1  0.98130631  0.43140012  0.06409332  1
  U  U16  1  0.31904572  0.76981556  0.73883206  1
  Ag  Ag17  1  0.64562875  0.10070480  0.40292966  1
  U  U18  1  0.14445253  0.09922467  0.39642060  1
  S  S19  1  0.53963310  0.23082241  0.73300260  1
  S  S20  1  0.72196382  0.92000961  0.06787425  1
  S  S21  1  0.08230466  0.30339107  0.73059881  1
  Li  Li22  1  0.48053777  0.43812767  0.06906407  1
  S  S23  1  0.38292420  0.57010353  0.40726581  1
  K  K24  1  0.73613334  0.76747382  0.69489735  1
  K  K25  1  0.23808295  0.27291173  0.19210255  1
  Cl  Cl26  1  0.23635155  0.77328777  0.18831241  1
  Na  Na27  1  0.48759717  0.51962841  0.44189298  1
  Ag  Ag28  1  0.98510790  0.02168204  0.94588196  1
  Cl  Cl29  1  0.73875391  0.77670813  0.19330043  1
  Cl  Cl30  1  0.23361549  0.26498693  0.69799054  1
  Cl  Cl31  1  0.74006271  0.26788294  0.18964988  1
  Cl  Cl32  1  0.23447527  0.77166957  0.69749010  1
  Cl  Cl33  1  0.74337327  0.27012056  0.69476092  1
  S  S34  1  0.14331579  0.94782287  0.41685528  1
  S  S35  1  0.72987968  0.66118592  0.79127657  1
  S  S36  1  0.76499510  0.30273506  0.15995717  1
  Ge  Ge37  1  0.14152518  0.66359627  0.78612965  1
  S  S38  1  0.88016349  0.64123207  0.32076317  1
  S  S39  1  0.11015716  0.91325051  0.94874489  1
  S  S40  1  0.37488124  0.49633348  0.53642374  1
  S  S41  1  0.28682041  0.42284384  0.97834873  1
  Th  Th42  1  0.43034256  0.66305625  0.16803354  1
  S  S43  1  0.57073492  0.00894119  0.02259448  1
  Ru  Ru44  1  0.51634878  0.76425993  0.53700680  1
  S  S45  1  0.52404624  0.05462810  0.56739104  1
  Rh  Rh46  1  0.16412957  0.13954292  0.11160168  1
  Nb  Nb47  1  0.77931112  0.97383213  0.27203912  1
  Ba  Ba48  1  0.89125818  0.27278128  0.65309572  1
  Ca  Ca49  1  0.18097104  0.03150022  0.00271276  1
  Cu  Cu50  1  0.76684308  0.31670597  0.10202742  1
  S  S51  1  0.13056588  0.41597721  0.87597615  1
  Fe  Fe52  1  0.61626422  0.43466538  0.87566561  1
  S  S53  1  0.44692665  0.57615000  0.53348410  1
  S  S54  1  0.71467245  0.20684022  0.22951514  1
  Cu  Cu55  1  0.52761716  0.68454707  0.23002914  1
  Ba  Ba56  1  0.03802424  0.74014169  0.70627135  1
  S  S57  1  0.64435428  0.00777621  0.94225079  1
  S  S58  1  0.54973787  0.26210847  0.72602463  1
  Cu  Cu59  1  0.02131443  0.90046227  0.24638671  1
  Fe  Fe60  1  0.42873120  0.05602438  0.51191592  1
  S  S61  1  0.32056627  0.85438251  0.35641614  1
  S  S62  1  0.14828157  0.64043570  0.11945812  1
  S  S63  1  0.94066477  0.08409821  0.53549629  1
  Ca  Ca64  1  0.88906956  0.47593001  0.42091903  1
