# generated using pymatgen
data_K4Rb2Na5SrLi6NdUTaTiBeFe2AgSb2PIrO23F20
_symmetry_space_group_name_H-M   'P 1'
_cell_length_a   4.87255812
_cell_length_b   6.16130209
_cell_length_c   8.69777489
_cell_angle_alpha   82.62377167
_cell_angle_beta   85.96931458
_cell_angle_gamma   85.10387421
_symmetry_Int_Tables_number   1
_chemical_formula_structural
K4Rb2Na5SrLi6NdUTaTiBeFe2AgSb2PIrO23F20
_chemical_formula_sum
'K4 Rb2 Na5 Sr1 Li6 Nd1 U1 Ta1 Ti1 Be1 Fe2 Ag1 Sb2 P1 Ir1 O23 F20'
_cell_volume   257.54715254
_cell_formula_units_Z   1
loop_
 _symmetry_equiv_pos_site_id
 _symmetry_equiv_pos_as_xyz
  1  'x, y, z'
loop_
 _atom_site_type_symbol
 _atom_site_label
 _atom_site_symmetry_multiplicity
 _atom_site_fract_x
 _atom_site_fract_y
 _atom_site_fract_z
 _atom_site_occupancy
  Ti  Ti0  1  0.59323972  0.31733495  0.56455499  1
  O  O1  1  0.84957194  0.52871299  0.65144134  1
  Be  Be2  1  0.00537992  0.09706064  0.45364565  1
  O  O3  1  0.88878089  0.14096951  0.02379718  1
  K  K4  1  0.64609790  0.67352992  0.93420267  1
  Li  Li5  1  0.04192471  0.05926913  0.79652524  1
  Ta  Ta6  1  0.63255000  0.12625320  0.21232866  1
  Na  Na7  1  0.13754782  0.63352150  0.27273118  1
  O  O8  1  0.30054745  0.33217847  0.75237536  1
  O  O9  1  0.41821674  0.92561787  0.14626253  1
  O  O10  1  0.82350278  0.32981193  0.36457115  1
  Li  Li11  1  0.25430021  0.19473326  0.01012516  1
  O  O12  1  0.34748590  0.57968491  0.51178056  1
  Li  Li13  1  0.57584196  0.83187693  0.55058724  1
  P  P14  1  0.16112237  0.55709255  0.67769790  1
  O  O15  1  0.85977983  0.91606075  0.35290426  1
  O  O16  1  0.80673754  0.07389095  0.63225996  1
  O  O17  1  0.34732154  0.11476522  0.45846301  1
  O  O18  1  0.20663871  0.75346744  0.77289164  1
  O  O19  1  0.41167161  0.37470394  0.14216174  1
  O  O20  1  0.33095118  0.67057985  0.21524134  1
  O  O21  1  0.06912172  0.01452181  0.91758007  1
  Li  Li22  1  0.00940098  0.34791937  0.79405904  1
  Na  Na23  1  0.50756651  0.84444290  0.28883541  1
  O  O24  1  0.07031993  0.02228215  0.42425320  1
  O  O25  1  0.67929614  0.40673169  0.42297482  1
  O  O26  1  0.33108220  0.28721476  0.16304824  1
  Sb  Sb27  1  0.00848794  0.84691030  0.78944576  1
  Na  Na28  1  0.50850886  0.84742481  0.78660196  1
  O  O29  1  0.67863566  0.02419253  0.86802912  1
  O  O30  1  0.94363534  0.67980748  0.65958619  1
  Sb  Sb31  1  0.50567120  0.34811452  0.28930733  1
  O  O32  1  0.94265795  0.67481875  0.15319091  1
  Fe  Fe33  1  0.50825661  0.34601232  0.78867745  1
  O  O34  1  0.67904353  0.02283802  0.36265799  1
  O  O35  1  0.33133215  0.67394602  0.71517897  1
  Fe  Fe36  1  0.00295624  0.85209799  0.28813535  1
  O  O37  1  0.67365360  0.40787849  0.92710841  1
  Ir  Ir38  1  0.00437586  0.34957185  0.29102528  1
  O  O39  1  0.34040177  0.28878126  0.64914763  1
  Rb  Rb40  1  0.61207455  0.08905922  0.34552172  1
  F  F41  1  0.11565695  0.08046527  0.85484850  1
  F  F42  1  0.11514108  0.08053982  0.33537352  1
  F  F43  1  0.11513287  0.59875768  0.33501261  1
  F  F44  1  0.59753311  0.07962602  0.85891223  1
  K  K45  1  0.85585392  0.34037277  0.59803253  1
  Sr  Sr46  1  0.35345680  0.83908135  0.10045666  1
  F  F47  1  0.59689039  0.59724325  0.34092754  1
  Rb  Rb48  1  0.10636154  0.58392203  0.84939098  1
  F  F49  1  0.59666044  0.60328925  0.85304773  1
  F  F50  1  0.91643757  0.95970970  0.05031586  1
  F  F51  1  0.42803335  0.21836427  0.78200614  1
  Na  Na52  1  0.15837394  0.74245858  0.80474901  1
  F  F53  1  0.02158678  0.38690886  0.06166758  1
  F  F54  1  0.97625977  0.11075554  0.54215097  1
  Na  Na55  1  0.72231930  0.37196150  0.88805568  1
  F  F56  1  0.05668204  0.64015132  0.50884843  1
  F  F57  1  0.50372934  0.75707501  0.98185909  1
  Li  Li58  1  0.22095680  0.32263261  0.54640102  1
  F  F59  1  0.50465274  0.82401657  0.50528157  1
  Ag  Ag60  1  0.75223553  0.55108601  0.32162997  1
  Li  Li61  1  0.64590257  0.98147857  0.66375232  1
  F  F62  1  0.43802470  0.27856815  0.27586335  1
  Nd  Nd63  1  0.23968467  0.00247597  0.20659396  1
  U  U64  1  0.40589532  0.16793124  0.26024324  1
  F  F65  1  0.37584487  0.41184598  0.05685672  1
  F  F66  1  0.84342283  0.40559214  0.52103794  1
  F  F67  1  0.43951881  0.92884797  0.96751398  1
  K  K68  1  0.86565644  0.38727880  0.02366227  1
  F  F69  1  0.40828699  0.91530955  0.44867542  1
  F  F70  1  0.35153091  0.39399138  0.53316915  1
  K  K71  1  0.92782497  0.93982685  0.48952675  1
  F  F72  1  0.95288670  0.91801238  0.98699963  1
