# generated using pymatgen
data_Cs2Rb2Li2La2DyMgTiTl2GaSiGe4Bi2AsW(ClO10)3
_symmetry_space_group_name_H-M   'P 1'
_cell_length_a   6.19659805
_cell_length_b   6.36089897
_cell_length_c   8.49795151
_cell_angle_alpha   93.65718842
_cell_angle_beta   93.44322205
_cell_angle_gamma   90.87302399
_symmetry_Int_Tables_number   1
_chemical_formula_structural
Cs2Rb2Li2La2DyMgTiTl2GaSiGe4Bi2AsW(ClO10)3
_chemical_formula_sum
'Cs2 Rb2 Li2 La2 Dy1 Mg1 Ti1 Tl2 Ga1 Si1 Ge4 Bi2 As1 W1 Cl3 O30'
_cell_volume   333.60802437
_cell_formula_units_Z   1
loop_
 _symmetry_equiv_pos_site_id
 _symmetry_equiv_pos_as_xyz
  1  'x, y, z'
loop_
 _atom_site_type_symbol
 _atom_site_label
 _atom_site_symmetry_multiplicity
 _atom_site_fract_x
 _atom_site_fract_y
 _atom_site_fract_z
 _atom_site_occupancy
  O  O0  1  0.35737413  0.47482148  0.72574729  1
  Cl  Cl1  1  0.88166887  0.46654627  0.96877277  1
  Rb  Rb2  1  0.39180472  0.45759436  0.07112941  1
  Cl  Cl3  1  0.39359987  0.95919281  0.10706952  1
  Cl  Cl4  1  0.67411256  0.96891099  0.67811978  1
  O  O5  1  0.42845041  0.46480983  0.42151105  1
  O  O6  1  0.05107635  0.66690713  0.50433320  1
  As  As7  1  0.22494309  0.46689844  0.53568834  1
  La  La8  1  0.73436749  0.47107279  0.63530719  1
  Tl  Tl9  1  0.18744299  0.97439420  0.74565810  1
  Rb  Rb10  1  0.90954435  0.95315742  0.24578179  1
  O  O11  1  0.05196525  0.26336044  0.50475466  1
  W  W12  1  0.77108592  0.65387100  0.42042869  1
  O  O13  1  0.53274810  0.90061992  0.61215818  1
  Cs  Cs14  1  0.23593347  0.11333690  0.03355796  1
  Cs  Cs15  1  0.97018355  0.85189128  0.79877245  1
  O  O16  1  0.13857739  0.56996423  0.22734471  1
  O  O17  1  0.54140174  0.41692591  0.61764479  1
  Bi  Bi18  1  0.42853576  0.31509006  0.40562809  1
  O  O19  1  0.68741453  0.02358703  0.23292381  1
  O  O20  1  0.67872500  0.55406672  0.22418389  1
  O  O21  1  0.01964430  0.42520779  0.60589218  1
  O  O22  1  0.39107555  0.91678488  0.25171754  1
  O  O23  1  0.66703188  0.57201737  0.93674880  1
  Bi  Bi24  1  0.87719476  0.36819810  0.69568509  1
  O  O25  1  0.92278856  0.02145515  0.84293550  1
  Dy  Dy26  1  0.88908422  0.82015592  0.16256164  1
  Tl  Tl27  1  0.40037793  0.30754855  0.19515932  1
  O  O28  1  0.90771180  0.68780178  0.50018626  1
  O  O29  1  0.42203349  0.29543754  0.57964349  1
  La  La30  1  0.40383315  0.85882628  0.65063423  1
  O  O31  1  0.21412131  0.23932673  0.08506453  1
  O  O32  1  0.27152768  0.69908905  0.61487645  1
  Mg  Mg33  1  0.90572453  0.94778454  0.48798209  1
  O  O34  1  0.46482605  0.19598536  0.64300871  1
  O  O35  1  0.82844418  0.31079039  0.39130169  1
  Li  Li36  1  0.22809884  0.82317519  0.99243188  1
  O  O37  1  0.76362586  0.72222984  0.12337182  1
  Ga  Ga38  1  0.69950205  0.35607985  0.02955554  1
  Si  Si39  1  0.33307618  0.38453311  0.45323330  1
  O  O40  1  0.66138631  0.55792356  0.83540934  1
  Ge  Ge41  1  0.24320838  0.41141608  0.27711278  1
  O  O42  1  0.28487054  0.72860873  0.38927835  1
  Li  Li43  1  0.06398220  0.98712987  0.48319924  1
  O  O44  1  0.53626162  0.04164375  0.77621669  1
  O  O45  1  0.83776504  0.24519324  0.53796870  1
  O  O46  1  0.48053086  0.41134968  0.12013067  1
  O  O47  1  0.33033216  0.21561676  0.43481430  1
  Ge  Ge48  1  0.47533667  0.64708841  0.97663450  1
  O  O49  1  0.97455692  0.26156244  0.08399256  1
  O  O50  1  0.16808227  0.65746713  0.86141074  1
  Ge  Ge51  1  0.65946186  0.15885818  0.02818452  1
  O  O52  1  0.60753834  0.92544115  0.15760385  1
  Ti  Ti53  1  0.56164718  0.99741340  0.50743169  1
  O  O54  1  0.81056511  0.76219881  0.53609824  1
  Ge  Ge55  1  0.87254155  0.55489272  0.68926352  1
