# generated using pymatgen
data_CsK4RbBa2Li4TmMgTi2Mn2AlCu2NiClO14F15
_symmetry_space_group_name_H-M   'P 1'
_cell_length_a   5.98933172
_cell_length_b   6.34596920
_cell_length_c   7.88683271
_cell_angle_alpha   82.46167755
_cell_angle_beta   93.14611816
_cell_angle_gamma   90.42332458
_symmetry_Int_Tables_number   1
_chemical_formula_structural   CsK4RbBa2Li4TmMgTi2Mn2AlCu2NiClO14F15
_chemical_formula_sum
'Cs1 K4 Rb1 Ba2 Li4 Tm1 Mg1 Ti2 Mn2 Al1 Cu2 Ni1 Cl1 O14 F15'
_cell_volume   296.72498676
_cell_formula_units_Z   1
loop_
 _symmetry_equiv_pos_site_id
 _symmetry_equiv_pos_as_xyz
  1  'x, y, z'
loop_
 _atom_site_type_symbol
 _atom_site_label
 _atom_site_symmetry_multiplicity
 _atom_site_fract_x
 _atom_site_fract_y
 _atom_site_fract_z
 _atom_site_occupancy
  O  O0  1  0.64430112  0.45741501  0.32572243  1
  Mn  Mn1  1  0.09676487  0.88076460  0.03310689  1
  O  O2  1  0.30270439  0.79159218  0.23467764  1
  Ti  Ti3  1  0.59420747  0.74941903  0.28164846  1
  O  O4  1  0.14422323  0.20568354  0.98431820  1
  O  O5  1  0.76101291  0.82587665  0.09687838  1
  K  K6  1  0.60604364  0.71451980  0.77609503  1
  O  O7  1  0.66624069  0.91823804  0.46867532  1
  K  K8  1  0.09858104  0.41172332  0.28980505  1
  O  O9  1  0.16129383  0.66063535  0.83788031  1
  O  O10  1  0.80958390  0.33687708  0.72816986  1
  O  O11  1  0.27418435  0.27936617  0.61388403  1
  Mn  Mn12  1  0.60022545  0.24654040  0.53567386  1
  Ti  Ti13  1  0.09511461  0.37107939  0.78723431  1
  K  K14  1  0.10980710  0.90124798  0.53666860  1
  K  K15  1  0.60030252  0.22537726  0.03147438  1
  Mg  Mg16  1  0.66723228  0.26408738  0.18174376  1
  F  F17  1  0.17034955  0.26825303  0.17766944  1
  Rb  Rb18  1  0.16780485  0.76913345  0.67739689  1
  F  F19  1  0.67104703  0.26923662  0.68014634  1
  F  F20  1  0.67237353  0.76778132  0.17373773  1
  Li  Li21  1  0.81017524  0.42955762  0.89647150  1
  Cu  Cu22  1  0.09590710  0.91065037  0.80545259  1
  Li  Li23  1  0.56011653  0.97163302  0.52810210  1
  O  O24  1  0.23596668  0.10921317  0.98385382  1
  O  O25  1  0.67175573  0.19242346  0.72905719  1
  F  F26  1  0.80127865  0.14991917  0.24541587  1
  O  O27  1  0.02950591  0.66103297  0.62646598  1
  Li  Li28  1  0.88483030  0.39488199  0.42042017  1
  O  O29  1  0.92742008  0.73291910  0.11509493  1
  Al  Al30  1  0.11358050  0.91842645  0.30933812  1
  O  O31  1  0.19990067  0.15085337  0.49590963  1
  Ni  Ni32  1  0.34741095  0.41987216  0.66161060  1
  Cu  Cu33  1  0.58370882  0.92547333  0.04077271  1
  F  F34  1  0.51188773  0.64940149  0.84489685  1
  O  O35  1  0.42662415  0.73376071  0.34558719  1
  Cl  Cl36  1  0.24296457  0.21029930  0.39840236  1
  Cs  Cs37  1  0.53163016  0.48259440  0.67309970  1
  F  F38  1  0.87869751  0.38424343  0.02304232  1
  Li  Li39  1  0.76069582  0.73129934  0.94027543  1
  F  F40  1  0.89400345  0.86045754  0.06295812  1
  Tm  Tm41  1  0.05414224  0.01206593  0.21995668  1
  F  F42  1  0.87246418  0.82156944  0.58448923  1
  F  F43  1  0.41554713  0.84490424  0.03536120  1
  F  F44  1  0.69201863  0.17456803  0.94869632  1
  Ba  Ba45  1  0.69236273  0.73559439  0.20624578  1
  F  F46  1  0.19544594  0.82619137  0.45212880  1
  F  F47  1  0.19760160  0.83069241  0.94759643  1
  F  F48  1  0.69052064  0.17378895  0.44614258  1
  F  F49  1  0.70203936  0.62613630  0.70173055  1
  Ba  Ba50  1  0.18969695  0.25895438  0.69571626  1
  F  F51  1  0.17935663  0.37957671  0.20271590  1
