# generated using pymatgen
data_RbNa3La2Yb2Sc2U2Be2Al3Zn3CdInCoGeB2Sb2Se4S24N5Cl2
_symmetry_space_group_name_H-M   'P 1'
_cell_length_a   5.14198351
_cell_length_b   6.12207842
_cell_length_c   6.60817671
_cell_angle_alpha   84.47502899
_cell_angle_beta   82.72527313
_cell_angle_gamma   85.29515076
_symmetry_Int_Tables_number   1
_chemical_formula_structural
RbNa3La2Yb2Sc2U2Be2Al3Zn3CdInCoGeB2Sb2Se4S24N5Cl2
_chemical_formula_sum
;
Rb1 Na3 Yb2 La2 Sc2 U2 Be2 Al3 Zn3 Cd1 In1 Co1 Ge1 B2 Sb2 Se4 S24 N5
Cl2
;
_cell_volume   204.87545568
_cell_formula_units_Z   1
loop_
 _symmetry_equiv_pos_site_id
 _symmetry_equiv_pos_as_xyz
  1  'x, y, z'
loop_
 _atom_site_type_symbol
 _atom_site_label
 _atom_site_symmetry_multiplicity
 _atom_site_fract_x
 _atom_site_fract_y
 _atom_site_fract_z
 _atom_site_occupancy
  Se  Se0  1  0.64000630  0.44469222  0.41267365  1
  Cd  Cd1  1  0.35920376  0.20684090  0.69167721  1
  Ge  Ge2  1  0.36751568  0.69876224  0.19492778  1
  In  In3  1  0.85955673  0.69868690  0.69332802  1
  Se  Se4  1  0.09021901  0.44960278  0.98185426  1
  Se  Se5  1  0.63090271  0.95532626  0.96724933  1
  Se  Se6  1  0.09574822  0.96720934  0.40242052  1
  Zn  Zn7  1  0.70595205  0.95433301  0.18064536  1
  S  S8  1  0.01392050  0.03609876  0.57621139  1
  S  S9  1  0.60969305  0.57532537  0.37522796  1
  S  S10  1  0.19595464  0.21333568  0.19205022  1
  Zn  Zn11  1  0.29853767  0.56372792  0.97424501  1
  S  S12  1  0.81138223  0.83551764  0.96460414  1
  Zn  Zn13  1  0.51611924  0.75706255  0.57628882  1
  Be  Be14  1  0.11504971  0.34411067  0.37746862  1
  Be  Be15  1  0.90762371  0.16258034  0.77122241  1
  S  S16  1  0.40007192  0.38549507  0.77750361  1
  U  U17  1  0.87446153  0.80004162  0.97219056  1
  S  S18  1  0.12228752  0.39392391  0.32378113  1
  Rb  Rb19  1  0.38308752  0.42258182  0.73881471  1
  U  U20  1  0.93752450  0.09455714  0.44734725  1
  Yb  Yb21  1  0.38604191  0.94286400  0.70749444  1
  S  S22  1  0.33570608  0.01354562  0.92358440  1
  Yb  Yb23  1  0.57340324  0.66142499  0.30891049  1
  S  S24  1  0.40950635  0.62395406  0.08021349  1
  S  S25  1  0.04033512  0.91319931  0.27824733  1
  S  S26  1  0.40734440  0.33372739  0.45380589  1
  S  S27  1  0.76493657  0.96185511  0.14836234  1
  S  S28  1  0.46173874  0.87720579  0.48551702  1
  S  S29  1  0.88291174  0.73508251  0.77708513  1
  S  S30  1  0.87671465  0.15075417  0.64504009  1
  S  S31  1  0.72560942  0.46009365  0.99637723  1
  Na  Na32  1  0.23141082  0.22935650  0.10547464  1
  Na  Na33  1  0.13807268  0.41309655  0.75285155  1
  N  N34  1  0.52276021  0.97347718  0.90167725  1
  Sb  Sb35  1  0.69280642  0.89558291  0.29666579  1
  N  N36  1  0.56597906  0.01394170  0.51917356  1
  N  N37  1  0.12997241  0.15988910  0.44788453  1
  Cl  Cl38  1  0.88522673  0.59923679  0.99509668  1
  B  B39  1  0.32357734  0.03973744  0.90423417  1
  B  B40  1  0.34777302  0.08888066  0.47671428  1
  Cl  Cl41  1  0.77585548  0.56032372  0.39201161  1
  Na  Na42  1  0.06025127  0.30474195  0.18649015  1
  N  N43  1  0.12010735  0.11212327  0.89071500  1
  Sb  Sb44  1  0.67909235  0.85333067  0.71776861  1
  S  S45  1  0.59945321  0.57049650  0.35583866  1
  S  S46  1  0.30589551  0.24019346  0.59236157  1
  S  S47  1  0.17784543  0.26513642  0.97052741  1
  Al  Al48  1  0.45543540  0.36726552  0.86857170  1
  S  S49  1  0.67400694  0.21896850  0.96195990  1
  Sc  Sc50  1  0.26564655  0.27280822  0.28241760  1
  Sc  Sc51  1  0.75666898  0.27047381  0.29211020  1
  Al  Al52  1  0.45735788  0.89554054  0.92437774  1
  S  S53  1  0.08581846  0.56157863  0.36329669  1
  La  La54  1  0.95072538  0.92432481  0.62492198  1
  N  N55  1  0.18820944  0.76602483  0.78446031  1
  La  La56  1  0.01437932  0.60925412  0.00275037  1
  S  S57  1  0.66424310  0.69577402  0.87550640  1
  S  S58  1  0.94569778  0.97774798  0.26030904  1
  Al  Al59  1  0.13139971  0.49922389  0.61749959  1
  S  S60  1  0.84005785  0.31129703  0.61644816  1
  Co  Co61  1  0.65116972  0.77011955  0.17777690  1
  S  S62  1  0.42123359  0.95053518  0.20438659  1
