# generated using pymatgen
data_CsK9NaSr2CaLaGdTlV2Cr2Si2W4(O17F5)2
_symmetry_space_group_name_H-M   'P 1'
_cell_length_a   4.15510988
_cell_length_b   7.13186741
_cell_length_c   9.11912632
_cell_angle_alpha   106.39878082
_cell_angle_beta   105.92355347
_cell_angle_gamma   89.44393921
_symmetry_Int_Tables_number   1
_chemical_formula_structural   CsK9NaSr2CaLaGdTlV2Cr2Si2W4(O17F5)2
_chemical_formula_sum
'Cs1 K9 Na1 Sr2 Ca1 La1 Gd1 Tl1 V2 Cr2 Si2 W4 O34 F10'
_cell_volume   248.61965617
_cell_formula_units_Z   1
loop_
 _symmetry_equiv_pos_site_id
 _symmetry_equiv_pos_as_xyz
  1  'x, y, z'
loop_
 _atom_site_type_symbol
 _atom_site_label
 _atom_site_symmetry_multiplicity
 _atom_site_fract_x
 _atom_site_fract_y
 _atom_site_fract_z
 _atom_site_occupancy
  O  O0  1  0.71225691  0.20955275  0.47940123  1
  K  K1  1  0.23018590  0.93271369  0.52449220  1
  Sr  Sr2  1  0.89705783  0.76501888  0.85525882  1
  K  K3  1  0.56724191  0.59710240  0.18664671  1
  O  O4  1  0.75015962  0.65712047  0.54561114  1
  Sr  Sr5  1  0.23012413  0.43746811  0.51801646  1
  O  O6  1  0.39092982  0.54573458  0.83058244  1
  K  K7  1  0.89938986  0.26594281  0.85066259  1
  O  O8  1  0.07459824  0.31097627  0.20215496  1
  La  La9  1  0.56625587  0.09807176  0.18618464  1
  O  O10  1  0.06059631  0.88736975  0.16531250  1
  O  O11  1  0.41621810  0.98605591  0.89146459  1
  O  O12  1  0.95728952  0.78265959  0.43156445  1
  O  O13  1  0.16783947  0.84281480  0.16841933  1
  V  V14  1  0.42073473  0.90297455  0.74913806  1
  Cs  Cs15  1  0.91242021  0.32547200  0.90867364  1
  F  F16  1  0.91661930  0.26703015  0.25335020  1
  F  F17  1  0.54830003  0.00590891  0.36760044  1
  O  O18  1  0.38982549  0.83290780  0.92184865  1
  Si  Si19  1  0.40589654  0.74059927  0.08345067  1
  K  K20  1  0.31638679  0.41751704  0.42559940  1
  V  V21  1  0.85823131  0.92482996  0.26564550  1
  F  F22  1  0.40912765  0.23407611  0.72021353  1
  F  F23  1  0.90993816  0.19970132  0.56249750  1
  O  O24  1  0.67222518  0.81586069  0.13323230  1
  O  O25  1  0.70762736  0.78775120  0.67933774  1
  O  O26  1  0.17743164  0.80636382  0.66381997  1
  Si  Si27  1  0.92587018  0.88005781  0.57911509  1
  F  F28  1  0.40932867  0.43111676  0.08375788  1
  O  O29  1  0.21805605  0.33971131  0.03237426  1
  O  O30  1  0.72231621  0.83541375  0.55708659  1
  K  K31  1  0.72389328  0.33777994  0.50845581  1
  O  O32  1  0.48803559  0.07491518  0.76225656  1
  O  O33  1  0.99853158  0.11075039  0.26474324  1
  Na  Na34  1  0.72608542  0.84020799  0.26531208  1
  K  K35  1  0.22978164  0.83597147  0.50931215  1
  K  K36  1  0.22241069  0.83900994  0.01718990  1
  O  O37  1  0.22328198  0.33875158  0.49290115  1
  Tl  Tl38  1  0.22610642  0.33700272  0.76018763  1
  O  O39  1  0.99732304  0.56119889  0.26192507  1
  K  K40  1  0.72313720  0.33794945  0.01643574  1
  O  O41  1  0.72398454  0.83702248  0.97369784  1
  W  W42  1  0.72042423  0.83468175  0.76174045  1
  W  W43  1  0.22628532  0.33975467  0.26265717  1
  O  O44  1  0.96284491  0.07011220  0.76443726  1
  O  O45  1  0.45199001  0.10644829  0.26089051  1
  O  O46  1  0.48917106  0.59883481  0.76249212  1
  O  O47  1  0.44887072  0.56146741  0.26356566  1
  O  O48  1  0.95959902  0.59776199  0.76268893  1
  O  O49  1  0.55770522  0.90766180  0.66749299  1
  W  W50  1  0.13242434  0.50483668  0.78925157  1
  Ca  Ca51  1  0.86601555  0.96529841  0.31393802  1
  O  O52  1  0.21165986  0.08208353  0.99608624  1
  O  O53  1  0.60289484  0.97132611  0.13630545  1
  O  O54  1  0.80728132  0.48924282  0.06010115  1
  O  O55  1  0.05019560  0.89389169  0.62816823  1
  W  W56  1  0.50177515  0.75770348  0.04968244  1
  O  O57  1  0.99131006  0.48442903  0.55735147  1
  O  O58  1  0.30510563  0.52462667  0.01324570  1
  O  O59  1  0.40633869  0.52595687  0.45860988  1
  Gd  Gd60  1  0.29141277  0.17525248  0.42266935  1
  F  F61  1  0.10007251  0.00603714  0.26930812  1
  O  O62  1  0.36148515  0.49215361  0.73573482  1
  K  K63  1  0.86123353  0.47553006  0.44592184  1
  Cr  Cr64  1  0.23880950  0.23908952  0.01822132  1
  F  F65  1  0.57274896  0.93036640  0.05999458  1
  O  O66  1  0.36583859  0.44777665  0.15066694  1
  F  F67  1  0.62479538  0.94747144  0.61598825  1
  Cr  Cr68  1  0.48434937  0.71117681  0.86801398  1
  F  F69  1  0.15077370  0.01855298  0.83426332  1
  F  F70  1  0.86905110  0.47180068  0.94606984  1
