# generated using pymatgen
data_CaCeY3MgTiZnCrFe3Co9Ag3BiB4HN7(O3F2)6
_symmetry_space_group_name_H-M   'P 1'
_cell_length_a   5.77787256
_cell_length_b   5.78773308
_cell_length_c   6.32254696
_cell_angle_alpha   106.57270813
_cell_angle_beta   83.77281189
_cell_angle_gamma   88.57794189
_symmetry_Int_Tables_number   1
_chemical_formula_structural   CaCeY3MgTiZnCrFe3Co9Ag3BiB4HN7(O3F2)6
_chemical_formula_sum
'Ca1 Ce1 Y3 Mg1 Ti1 Zn1 Cr1 Fe3 Co9 Ag3 Bi1 B4 H1 N7 O18 F12'
_cell_volume   201.10685677
_cell_formula_units_Z   1
loop_
 _symmetry_equiv_pos_site_id
 _symmetry_equiv_pos_as_xyz
  1  'x, y, z'
loop_
 _atom_site_type_symbol
 _atom_site_label
 _atom_site_symmetry_multiplicity
 _atom_site_fract_x
 _atom_site_fract_y
 _atom_site_fract_z
 _atom_site_occupancy
  Cr  Cr0  1  0.87403029  0.63307935  0.03908439  1
  Y  Y1  1  0.45879629  0.41102511  0.81479192  1
  N  N2  1  0.84718376  0.28597602  0.94559598  1
  Y  Y3  1  0.75493550  0.82941914  0.65932542  1
  Ca  Ca4  1  0.03612844  0.26383531  0.53650475  1
  N  N5  1  0.24994560  0.30281180  0.15862557  1
  Y  Y6  1  0.61605400  0.13851871  0.25077268  1
  N  N7  1  0.55059773  0.77129614  0.03159098  1
  Ce  Ce8  1  0.31504968  0.69208694  0.38123637  1
  N  N9  1  0.95448995  0.87686038  0.28926551  1
  B  B10  1  0.03754452  0.32969272  0.06794493  1
  Mg  Mg11  1  0.21208644  0.96412688  0.94856590  1
  N  N12  1  0.64603901  0.48830393  0.48835251  1
  N  N13  1  0.40491813  0.04808671  0.60077649  1
  N  N14  1  0.09833362  0.65983474  0.76083279  1
  Fe  Fe15  1  0.73937511  0.91854471  0.67304283  1
  B  B16  1  0.84808958  0.34577531  0.06934627  1
  B  B17  1  0.23070428  0.88292438  0.93027854  1
  H  H18  1  0.87782657  0.46559632  0.53433645  1
  O  O19  1  0.69644040  0.57801855  0.13541397  1
  O  O20  1  0.45648071  0.92236978  0.41172609  1
  Fe  Fe21  1  0.73385447  0.90173292  0.17423739  1
  O  O22  1  0.70706904  0.57065648  0.56966889  1
  O  O23  1  0.14286853  0.39024654  0.09874390  1
  O  O24  1  0.71264905  0.22125188  0.19905119  1
  B  B25  1  0.22055125  0.04935727  0.44205162  1
  O  O26  1  0.99949515  0.92694163  0.40876207  1
  O  O27  1  0.21328026  0.27587521  0.49354321  1
  O  O28  1  0.99946290  0.86945242  0.92977798  1
  Fe  Fe29  1  0.41409537  0.48291096  0.33139351  1
  O  O30  1  0.46293706  0.85395968  0.91922325  1
  Bi  Bi31  1  0.40888664  0.44743997  0.81574821  1
  O  O32  1  0.78232449  0.25525594  0.84216940  1
  F  F33  1  0.29050192  0.56926703  0.08202241  1
  Co  Co34  1  0.28948131  0.28773904  0.88403106  1
  F  F35  1  0.29125556  0.48572546  0.59625727  1
  F  F36  1  0.78416657  0.28818956  0.88579899  1
  Zn  Zn37  1  0.28326842  0.79179746  0.38147360  1
  F  F38  1  0.29885337  0.00758936  0.68799883  1
  F  F39  1  0.79160094  0.78944457  0.38387758  1
  F  F40  1  0.27623820  0.09816927  0.17649452  1
  Ti  Ti41  1  0.47496313  0.30768344  0.35987857  1
  F  F42  1  0.41267887  0.53037697  0.56873298  1
  Ag  Ag43  1  0.97302437  0.81189483  0.85626125  1
  F  F44  1  0.75275213  0.04752992  0.49993998  1
  Ag  Ag45  1  0.78978896  0.57476175  0.60397518  1
  Ag  Ag46  1  0.15196419  0.05869764  0.10540163  1
  F  F47  1  0.18473835  0.17093225  0.63387656  1
  F  F48  1  0.19686435  0.57031351  0.21364745  1
  F  F49  1  0.53458232  0.08540994  0.14839922  1
  F  F50  1  0.76427042  0.45142901  0.08225203  1
  Co  Co51  1  0.47747475  0.22045492  0.12241969  1
  O  O52  1  0.47820446  0.47183383  0.37093526  1
  O  O53  1  0.47611374  0.47110423  0.86736423  1
  Co  Co54  1  0.47112721  0.71984375  0.61983502  1
  O  O55  1  0.97504711  0.71942329  0.11593186  1
  Co  Co56  1  0.97171456  0.47266677  0.87102509  1
  Co  Co57  1  0.47628185  0.21832754  0.61693019  1
  O  O58  1  0.96937871  0.22257106  0.61768329  1
  O  O59  1  0.47306818  0.96569347  0.87267691  1
  Co  Co60  1  0.97438127  0.97099227  0.37378088  1
  Co  Co61  1  0.47454661  0.72115284  0.12314679  1
  O  O62  1  0.98229951  0.71355307  0.61833191  1
  Co  Co63  1  0.97474730  0.97266406  0.86911005  1
  O  O64  1  0.47701040  0.96608311  0.37202892  1
  Co  Co65  1  0.97802246  0.46888322  0.36881256  1
  O  O66  1  0.97709960  0.22159250  0.12095453  1
