# generated using pymatgen
data_Cs2K2Na6Sr2Li4NdEuU2Ti3MnCu2SbIr2(O6F5)4
_symmetry_space_group_name_H-M   'P 1'
_cell_length_a   4.87255812
_cell_length_b   6.16130209
_cell_length_c   8.69777489
_cell_angle_alpha   82.62377167
_cell_angle_beta   85.96931458
_cell_angle_gamma   85.10387421
_symmetry_Int_Tables_number   1
_chemical_formula_structural
Cs2K2Na6Sr2Li4NdEuU2Ti3MnCu2SbIr2(O6F5)4
_chemical_formula_sum
'Cs2 K2 Na6 Sr2 Li4 Nd1 Eu1 U2 Ti3 Mn1 Cu2 Sb1 Ir2 O24 F20'
_cell_volume   257.54715254
_cell_formula_units_Z   1
loop_
 _symmetry_equiv_pos_site_id
 _symmetry_equiv_pos_as_xyz
  1  'x, y, z'
loop_
 _atom_site_type_symbol
 _atom_site_label
 _atom_site_symmetry_multiplicity
 _atom_site_fract_x
 _atom_site_fract_y
 _atom_site_fract_z
 _atom_site_occupancy
  O  O0  1  0.18013099  0.60046405  0.05584934  1
  O  O1  1  0.42779824  0.20550372  0.90407389  1
  Na  Na2  1  0.90297282  0.84710437  0.72302997  1
  O  O3  1  0.74834728  0.24425071  0.63495392  1
  O  O4  1  0.80204475  0.42002955  0.27502921  1
  O  O5  1  0.24620566  0.21054409  0.45943674  1
  Na  Na6  1  0.40683651  0.28153655  0.18843916  1
  O  O7  1  0.19415928  0.49031094  0.64887154  1
  O  O8  1  0.67464828  0.67553377  0.96115738  1
  Na  Na9  1  0.90173239  0.33141980  0.91088724  1
  Na  Na10  1  0.37839401  0.79721737  0.46994114  1
  O  O11  1  0.50438911  0.88173431  0.19239989  1
  O  O12  1  0.91897917  0.73095703  0.39649886  1
  Ti  Ti13  1  0.41099545  0.20883211  0.67063743  1
  Mn  Mn14  1  0.95896828  0.43142888  0.47211766  1
  Ti  Ti15  1  0.35174987  0.88851279  0.00242424  1
  O  O16  1  0.00749288  0.99058312  0.05058729  1
  Li  Li17  1  0.39093313  0.56568688  0.84136558  1
  Ti  Ti18  1  0.85611498  0.71495730  0.15366593  1
  O  O19  1  0.34809688  0.90983903  0.74352628  1
  Ir  Ir20  1  0.52709180  0.86434817  0.55462039  1
  Eu  Eu21  1  0.02614850  0.35886717  0.06352535  1
  Sb  Sb22  1  0.03124635  0.86432523  0.55334085  1
  U  U23  1  0.52827209  0.36267194  0.05766508  1
  O  O24  1  0.19797286  0.51533026  0.14074966  1
  Ir  Ir25  1  0.52985501  0.86458492  0.05515051  1
  O  O26  1  0.85005468  0.79928946  0.91060746  1
  O  O27  1  0.59336799  0.54545271  0.17165673  1
  O  O28  1  0.20451000  0.92469984  0.20003402  1
  O  O29  1  0.85837126  0.20476054  0.97205293  1
  O  O30  1  0.58409357  0.55141693  0.69279963  1
  O  O31  1  0.46797162  0.16992243  0.42360243  1
  O  O32  1  0.84230763  0.80658048  0.44808912  1
  O  O33  1  0.46102503  0.18418065  0.93533176  1
  O  O34  1  0.87223971  0.18895572  0.46951920  1
  O  O35  1  0.18238251  0.53853911  0.64037097  1
  O  O36  1  0.20816013  0.91831356  0.67124200  1
  Li  Li37  1  0.02996447  0.86057782  0.05571011  1
  Li  Li38  1  0.52880138  0.36387312  0.55285960  1
  Na  Na39  1  0.03100669  0.35411507  0.55891335  1
  F  F40  1  0.57175905  0.29748657  0.86188972  1
  Sr  Sr41  1  0.82436407  0.04751610  0.60616928  1
  F  F42  1  0.57746035  0.79774445  0.85451782  1
  F  F43  1  0.57461923  0.29890880  0.36065149  1
  F  F44  1  0.07319490  0.29493213  0.36495069  1
  Sr  Sr45  1  0.32241553  0.55264211  0.11240849  1
  F  F46  1  0.07586851  0.79765725  0.86059821  1
  Cs  Cs47  1  0.57567120  0.79895961  0.36406934  1
  Cs  Cs48  1  0.07422561  0.29692212  0.85872865  1
  F  F49  1  0.07313100  0.79877865  0.36347204  1
  F  F50  1  0.63017583  0.80765915  0.81388879  1
  F  F51  1  0.06781843  0.43030775  0.87900120  1
  F  F52  1  0.77279145  0.54466593  0.50851423  1
  Cu  Cu53  1  0.35932818  0.10289609  0.32339132  1
  F  F54  1  0.34244269  0.32116917  0.46638957  1
  Li  Li55  1  0.01001232  0.78245455  0.40339565  1
  F  F56  1  0.96960759  0.82185072  0.08863950  1
  O  O57  1  0.51106620  0.33025354  0.03766693  1
  F  F58  1  0.21774094  0.86282361  0.61883259  1
  Cu  Cu59  1  0.36310980  0.60178262  0.83681560  1
  Na  Na60  1  0.87953436  0.15357660  0.75693148  1
  Nd  Nd61  1  0.72304738  0.51204842  0.17708793  1
  F  F62  1  0.91789109  0.13366981  0.36764517  1
  F  F63  1  0.38826254  0.82477909  0.24248782  1
  F  F64  1  0.22947976  0.19594115  0.79929489  1
  K  K65  1  0.74781400  0.21243781  0.30762649  1
  F  F66  1  0.26752385  0.69132745  0.79554290  1
  F  F67  1  0.26745045  0.23732439  0.33912969  1
  K  K68  1  0.26232040  0.72097051  0.30073780  1
  U  U69  1  0.50765699  0.47181574  0.80715895  1
  F  F70  1  0.77983683  0.73922253  0.80322117  1
  F  F71  1  0.73469234  0.68426090  0.25676024  1
  F  F72  1  0.73391026  0.24021760  0.81531107  1
