# generated using pymatgen
data_K3RbGdU7GaTe10P6Pt2Rh5AuSeCl5
_symmetry_space_group_name_H-M   'P 1'
_cell_length_a   4.07229900
_cell_length_b   4.32061529
_cell_length_c   4.85554743
_cell_angle_alpha   93.07030487
_cell_angle_beta   88.81633759
_cell_angle_gamma   97.76748657
_symmetry_Int_Tables_number   1
_chemical_formula_structural   K3RbGdU7GaTe10P6Pt2Rh5AuSeCl5
_chemical_formula_sum
'K3 Rb1 Gd1 U7 Ga1 Te10 P6 Pt2 Rh5 Au1 Se1 Cl5'
_cell_volume   84.51941569
_cell_formula_units_Z   1
loop_
 _symmetry_equiv_pos_site_id
 _symmetry_equiv_pos_as_xyz
  1  'x, y, z'
loop_
 _atom_site_type_symbol
 _atom_site_label
 _atom_site_symmetry_multiplicity
 _atom_site_fract_x
 _atom_site_fract_y
 _atom_site_fract_z
 _atom_site_occupancy
  Gd  Gd0  1  0.47979525  0.16684836  0.87272590  1
  Pt  Pt1  1  0.47472811  0.66813493  0.37134209  1
  P  P2  1  0.97351277  0.66895479  0.09103550  1
  P  P3  1  0.97929966  0.66376829  0.65238076  1
  Pt  Pt4  1  0.97128052  0.15964457  0.37257901  1
  Se  Se5  1  0.37512600  0.52521139  0.95967042  1
  Au  Au6  1  0.87475967  0.61179990  0.85898376  1
  K  K7  1  0.88054782  0.62756276  0.29707974  1
  Cl  Cl8  1  0.87031329  0.88613743  0.70693702  1
  Cl  Cl9  1  0.88016516  0.12940538  0.30799463  1
  K  K10  1  0.36929142  0.02806055  0.01462606  1
  K  K11  1  0.37685871  0.20344594  0.58239323  1
  Cl  Cl12  1  0.45339307  0.77301818  0.68359029  1
  Rb  Rb13  1  0.95984411  0.77347815  0.12056181  1
  Cl  Cl14  1  0.95745975  0.27032945  0.69820410  1
  Cl  Cl15  1  0.45254475  0.26695657  0.23052815  1
  Ga  Ga16  1  0.45576882  0.26740196  0.62137467  1
  Rh  Rh17  1  0.21542192  0.54496634  0.94418317  1
  P  P18  1  0.25166419  0.07194246  0.05588000  1
  P  P19  1  0.74437428  0.07150832  0.46740979  1
  Rh  Rh20  1  0.21647227  0.09748530  0.59888577  1
  P  P21  1  0.74049020  0.57833523  0.04762378  1
  Rh  Rh22  1  0.77644557  0.10259615  0.93323857  1
  Rh  Rh23  1  0.50182235  0.82457715  0.26107135  1
  Rh  Rh24  1  0.77937150  0.54133290  0.59258741  1
  P  P25  1  0.24744201  0.57790631  0.45879531  1
  U  U26  1  0.98413479  0.12111101  0.08458117  1
  U  U27  1  0.23263761  0.50158203  0.46827728  1
  Te  Te28  1  0.48632029  0.23708154  0.19937783  1
  Te  Te29  1  0.97749895  0.24055016  0.47015554  1
  U  U30  1  0.98315912  0.50840980  0.85870695  1
  Te  Te31  1  0.97558653  0.77123362  0.73832315  1
  Te  Te32  1  0.73427802  0.84080029  0.13645037  1
  Te  Te33  1  0.49352396  0.77038282  0.47118932  1
  U  U34  1  0.98888534  0.89414698  0.46998131  1
  Te  Te35  1  0.97938293  0.50493068  0.20651099  1
  Te  Te36  1  0.73252833  0.17126979  0.80336893  1
  U  U37  1  0.47922948  0.89109701  0.85861480  1
  Te  Te38  1  0.48776120  0.50203031  0.73419160  1
  U  U39  1  0.48034316  0.50191957  0.08244770  1
  U  U40  1  0.48042783  0.11448917  0.46728253  1
  Te  Te41  1  0.23533434  0.83841532  0.13701290  1
  Te  Te42  1  0.23440155  0.17083803  0.80256242  1
