# generated using pymatgen
data_Ca2CeY3TiZnFe2Co9ReNi2Ag3B3HN7O20F11
_symmetry_space_group_name_H-M   'P 1'
_cell_length_a   5.77787256
_cell_length_b   5.78773308
_cell_length_c   6.32254696
_cell_angle_alpha   106.57270813
_cell_angle_beta   83.77281189
_cell_angle_gamma   88.57794189
_symmetry_Int_Tables_number   1
_chemical_formula_structural   Ca2CeY3TiZnFe2Co9ReNi2Ag3B3HN7O20F11
_chemical_formula_sum
'Ca2 Ce1 Y3 Ti1 Zn1 Fe2 Co9 Re1 Ni2 Ag3 B3 H1 N7 O20 F11'
_cell_volume   201.10685677
_cell_formula_units_Z   1
loop_
 _symmetry_equiv_pos_site_id
 _symmetry_equiv_pos_as_xyz
  1  'x, y, z'
loop_
 _atom_site_type_symbol
 _atom_site_label
 _atom_site_symmetry_multiplicity
 _atom_site_fract_x
 _atom_site_fract_y
 _atom_site_fract_z
 _atom_site_occupancy
  Ce  Ce0  1  0.17069873  0.91143078  0.04697645  1
  Y  Y1  1  0.47024149  0.35616237  0.90112543  1
  Y  Y2  1  0.27866066  0.64491463  0.47930515  1
  N  N3  1  0.63669658  0.43660566  0.55357510  1
  Ni  Ni4  1  0.74014395  0.61796749  0.31350860  1
  Ca  Ca5  1  0.73604196  0.78711772  0.78721297  1
  N  N6  1  0.37142783  0.99728245  0.69577718  1
  Ca  Ca7  1  0.01739565  0.21284845  0.61189866  1
  Y  Y8  1  0.57891297  0.09462652  0.33559316  1
  N  N9  1  0.10715289  0.56079477  0.83653682  1
  N  N10  1  0.50306118  0.72558922  0.14299366  1
  N  N11  1  0.92708170  0.84551638  0.39343590  1
  Ni  Ni12  1  0.99284589  0.40102720  0.08983574  1
  N  N13  1  0.82088977  0.15159169  0.98808253  1
  N  N14  1  0.23692025  0.27405182  0.24002823  1
  H  H15  1  0.23755099  0.52352262  0.10749865  1
  O  O16  1  0.92253113  0.01559086  0.03496119  1
  Re  Re17  1  0.92910427  0.50764358  0.69991821  1
  Fe  Fe18  1  0.17068031  0.06464332  0.82915735  1
  O  O19  1  0.39773041  0.00929148  0.57858455  1
  B  B20  1  0.34823385  0.49008518  0.39948645  1
  O  O21  1  0.44856688  0.99682093  0.03790769  1
  O  O22  1  0.79237461  0.94739789  0.39567387  1
  O  O23  1  0.17423855  0.38492048  0.88711590  1
  O  O24  1  0.79566747  0.18959615  0.70579511  1
  O  O25  1  0.26520491  0.60460997  0.24571705  1
  O  O26  1  0.68433517  0.66681683  0.90608358  1
  O  O27  1  0.06965896  0.75864208  0.69491249  1
  O  O28  1  0.15551415  0.35987812  0.45769566  1
  O  O29  1  0.61297089  0.49989212  0.49183440  1
  Fe  Fe30  1  0.17633595  0.98066866  0.29124194  1
  B  B31  1  0.69018555  0.89712501  0.99647415  1
  B  B32  1  0.66226786  0.04949903  0.55824745  1
  F  F33  1  0.81235707  0.09955982  0.60864246  1
  Zn  Zn34  1  0.02331539  0.11303718  0.29173934  1
  F  F35  1  0.02741097  0.61374515  0.29575768  1
  F  F36  1  0.72666168  0.10766057  0.09258618  1
  F  F37  1  0.52295899  0.61048317  0.79429507  1
  Co  Co38  1  0.53033531  0.10857357  0.79180670  1
  F  F39  1  0.23951000  0.10717092  0.98074996  1
  F  F40  1  0.32999906  0.10289779  0.49557418  1
  F  F41  1  0.82218826  0.63940275  0.83422065  1
  Ag  Ag42  1  0.36083490  0.92939770  0.07922634  1
  F  F43  1  0.94369322  0.05017208  0.41530153  1
  F  F44  1  0.25866625  0.08398689  0.62815589  1
  Ag  Ag45  1  0.84970641  0.48552021  0.49842763  1
  F  F46  1  0.16600096  0.65696901  0.04254599  1
  Ag  Ag47  1  0.55721533  0.33515316  0.23062980  1
  Ti  Ti48  1  0.02582264  0.87401909  0.74320519  1
  O  O49  1  0.72506571  0.08391835  0.92047542  1
  F  F50  1  0.36023813  0.65384543  0.51581860  1
  Co  Co51  1  0.90579778  0.18862158  0.19469789  1
  Co  Co52  1  0.40957192  0.93643081  0.06657682  1
  Co  Co53  1  0.90567499  0.18442172  0.69797665  1
  Co  Co54  1  0.40703976  0.43905422  0.32515755  1
  O  O55  1  0.15529217  0.56270397  0.13223517  1
  Co  Co56  1  0.40356070  0.93847740  0.56877983  1
  Co  Co57  1  0.40920490  0.43773711  0.81718540  1
  Co  Co58  1  0.90439290  0.69074583  0.44372880  1
  O  O59  1  0.65301907  0.81534672  0.75739938  1
  O  O60  1  0.65656507  0.81440687  0.25689614  1
  O  O61  1  0.15660937  0.06404730  0.37943473  1
  Co  Co62  1  0.90490830  0.68633515  0.94055319  1
  O  O63  1  0.15423091  0.06376609  0.88077360  1
  O  O64  1  0.65061337  0.31641471  0.51445889  1
  O  O65  1  0.65058726  0.31085283  0.99788660  1
  O  O66  1  0.15845957  0.56674117  0.63571674  1
