# generated using pymatgen
data_Cs2K5Ba2NaLiCaThU3CrCu4AgAsPRu2CS21Cl6O11
_symmetry_space_group_name_H-M   'P 1'
_cell_length_a   6.16562462
_cell_length_b   6.47381926
_cell_length_c   7.14673281
_cell_angle_alpha   115.88598633
_cell_angle_beta   99.69436646
_cell_angle_gamma   91.25775909
_symmetry_Int_Tables_number   1
_chemical_formula_structural
Cs2K5Ba2NaLiCaThU3CrCu4AgAsPRu2CS21Cl6O11
_chemical_formula_sum
'Cs2 K5 Ba2 Na1 Li1 Ca1 Th1 U3 Cr1 Cu4 Ag1 As1 P1 Ru2 C1 S21 Cl6 O11'
_cell_volume   251.50592218
_cell_formula_units_Z   1
loop_
 _symmetry_equiv_pos_site_id
 _symmetry_equiv_pos_as_xyz
  1  'x, y, z'
loop_
 _atom_site_type_symbol
 _atom_site_label
 _atom_site_symmetry_multiplicity
 _atom_site_fract_x
 _atom_site_fract_y
 _atom_site_fract_z
 _atom_site_occupancy
  O  O0  1  0.72534841  0.10959587  0.55692148  1
  As  As1  1  0.15298299  0.46212995  0.04130103  1
  K  K2  1  0.28515846  0.17872505  0.40677315  1
  Cs  Cs3  1  0.71486950  0.99822003  0.02454257  1
  O  O4  1  0.99979383  0.44072589  0.21592110  1
  K  K5  1  0.63789076  0.63543481  0.31960711  1
  O  O6  1  0.99884820  0.37606922  0.76717770  1
  C  C7  1  0.78441346  0.32475388  0.65916783  1
  O  O8  1  0.35004017  0.27425489  0.01651461  1
  O  O9  1  0.66034555  0.49388748  0.64608264  1
  Cs  Cs10  1  0.17324853  0.79036444  0.68161833  1
  O  O11  1  0.25407952  0.74080431  0.12101127  1
  S  S12  1  0.52690119  0.22980382  0.42264956  1
  Cu  Cu13  1  0.28312150  0.12368497  0.57499695  1
  S  S14  1  0.09171368  0.22593349  0.98695636  1
  K  K15  1  0.60031772  0.75333977  0.01784512  1
  O  O16  1  0.01711031  0.75454670  0.42226434  1
  S  S17  1  0.55900538  0.79732609  0.50240856  1
  U  U18  1  0.06849998  0.51789296  0.25097200  1
  S  S19  1  0.05012814  0.65603948  0.92790049  1
  S  S20  1  0.59957027  0.22251858  0.91598511  1
  Li  Li21  1  0.81047368  0.65666324  0.58043420  1
  S  S22  1  0.05082330  0.28402945  0.51050395  1
  Cr  Cr23  1  0.80642885  0.23276967  0.70140427  1
  Cl  Cl24  1  0.15223828  0.67717367  0.89055574  1
  Cl  Cl25  1  0.15121926  0.18583584  0.88908052  1
  K  K26  1  0.15208915  0.18165085  0.39210543  1
  Cl  Cl27  1  0.64535987  0.68226522  0.39409369  1
  Na  Na28  1  0.89914656  0.93246913  0.14303416  1
  K  K29  1  0.64799953  0.68221807  0.89465427  1
  Cl  Cl30  1  0.64321846  0.18992981  0.39155567  1
  Ag  Ag31  1  0.39920878  0.43356511  0.64065939  1
  Cl  Cl32  1  0.64827204  0.18366240  0.89063263  1
  Cl  Cl33  1  0.14957558  0.68269849  0.39517817  1
  U  U34  1  0.92388320  0.22943680  0.47922236  1
  S  S35  1  0.71604824  0.31159335  0.21737269  1
  S  S36  1  0.25686339  0.02013553  0.21342674  1
  U  U37  1  0.49142432  0.66099697  0.34383333  1
  S  S38  1  0.28882253  0.34822527  0.58883935  1
  S  S39  1  0.79692513  0.68893039  0.98726046  1
  S  S40  1  0.69182372  0.18222085  0.83306015  1
  S  S41  1  0.27706853  0.90170032  0.85314828  1
  S  S42  1  0.14755768  0.86936796  0.61992043  1
  Ru  Ru43  1  0.02523388  0.79956281  0.15186174  1
  S  S44  1  0.19419998  0.50719255  0.21484205  1
  S  S45  1  0.72099662  0.58325970  0.60157037  1
  S  S46  1  0.71685219  0.93574649  0.41929799  1
  Ru  Ru47  1  0.71915472  0.85950506  0.72834295  1
  Th  Th48  1  0.14330807  0.29208449  0.94689035  1
  Ca  Ca49  1  0.84219378  0.85489750  0.18273649  1
  O  O50  1  0.58843952  0.35203943  0.53040051  1
  S  S51  1  0.40754068  0.94057530  0.30528465  1
  S  S52  1  0.26959103  0.74890161  0.05897073  1
  Cu  Cu53  1  0.17657119  0.86471748  0.70375150  1
  Ba  Ba54  1  0.68060267  0.63653338  0.89241940  1
  O  O55  1  0.27667645  0.71823967  0.56734502  1
  P  P56  1  0.54209626  0.62406021  0.60346609  1
  O  O57  1  0.79956806  0.88563609  0.62921751  1
  S  S58  1  0.76560360  0.25479373  0.05680983  1
  O  O59  1  0.46451202  0.55882084  0.70546240  1
  S  S60  1  0.90950704  0.44489858  0.30944631  1
  Cu  Cu61  1  0.26432526  0.24919720  0.05075946  1
  S  S62  1  0.17004067  0.09161361  0.84614426  1
  Ba  Ba63  1  0.01077406  0.06491057  0.46793562  1
  Cu  Cu64  1  0.41204599  0.43958497  0.30015904  1
