# generated using pymatgen
data_CsK8NaSr2CaGdNb2VCu2Si5BiW3SClO39F2
_symmetry_space_group_name_H-M   'P 1'
_cell_length_a   4.15510988
_cell_length_b   7.13186741
_cell_length_c   9.11912632
_cell_angle_alpha   106.39878082
_cell_angle_beta   105.92355347
_cell_angle_gamma   89.44393921
_symmetry_Int_Tables_number   1
_chemical_formula_structural   CsK8NaSr2CaGdNb2VCu2Si5BiW3SClO39F2
_chemical_formula_sum
'Cs1 K8 Na1 Sr2 Ca1 Gd1 Nb2 V1 Cu2 Si5 Bi1 W3 S1 Cl1 O39 F2'
_cell_volume   248.61965617
_cell_formula_units_Z   1
loop_
 _symmetry_equiv_pos_site_id
 _symmetry_equiv_pos_as_xyz
  1  'x, y, z'
loop_
 _atom_site_type_symbol
 _atom_site_label
 _atom_site_symmetry_multiplicity
 _atom_site_fract_x
 _atom_site_fract_y
 _atom_site_fract_z
 _atom_site_occupancy
  O  O0  1  0.23240423  0.38620186  0.48116899  1
  Sr  Sr1  1  0.86381119  0.83486664  0.75116587  1
  Cl  Cl2  1  0.38809568  0.15733109  0.80068922  1
  K  K3  1  0.01459600  0.36800963  0.03174863  1
  S  S4  1  0.04857558  0.92984980  0.12151755  1
  O  O5  1  0.73428828  0.82898682  0.50045675  1
  O  O6  1  0.58221173  0.56001723  0.18380247  1
  Cu  Cu7  1  0.52452868  0.75277847  0.06008023  1
  K  K8  1  0.68845624  0.17168334  0.40743989  1
  Sr  Sr9  1  0.17588964  0.68330181  0.37157100  1
  O  O10  1  0.41040736  0.66300029  0.82988173  1
  Cu  Cu11  1  0.32917008  0.42119649  0.68353015  1
  Cs  Cs12  1  0.25151020  0.30099428  0.01205848  1
  O  O13  1  0.67939574  0.70027918  0.95213586  1
  O  O14  1  0.73138422  0.91745436  0.35581440  1
  Si  Si15  1  0.68289649  0.80256361  0.81352413  1
  Si  Si16  1  0.65377092  0.24219765  0.35831994  1
  O  O17  1  0.18321264  0.75101209  0.49351698  1
  O  O18  1  0.34891993  0.32612669  0.34741619  1
  O  O19  1  0.45653203  0.69109958  0.71836138  1
  O  O20  1  0.94506574  0.65500557  0.73006254  1
  V  V21  1  0.86384678  0.32183939  0.66815060  1
  O  O22  1  0.82443601  0.39762846  0.25322318  1
  O  O23  1  0.77502602  0.34169847  0.49646917  1
  O  O24  1  0.16562106  0.80092448  0.18460874  1
  O  O25  1  0.69780409  0.11939528  0.79285008  1
  Nb  Nb26  1  0.04098500  0.63940060  0.33325106  1
  Si  Si27  1  0.20391318  0.81158584  0.65040809  1
  O  O28  1  0.16330138  0.11831178  0.66672122  1
  Na  Na29  1  0.77918398  0.82093513  0.45749429  1
  O  O30  1  0.53340769  0.58058882  0.95440352  1
  K  K31  1  0.78077757  0.31391963  0.21822892  1
  Bi  Bi32  1  0.27437264  0.32379109  0.95490342  1
  O  O33  1  0.28220814  0.32682216  0.20916604  1
  K  K34  1  0.77981406  0.32190722  0.68674290  1
  O  O35  1  0.01922404  0.57680327  0.96076286  1
  W  W36  1  0.27701032  0.32440674  0.45418221  1
  O  O37  1  0.78110135  0.82403362  0.16934985  1
  Nb  Nb38  1  0.78657538  0.82147455  0.95834786  1
  O  O39  1  0.27955884  0.32042092  0.71253145  1
  K  K40  1  0.28003144  0.82600158  0.21159379  1
  O  O41  1  0.02602537  0.06366991  0.95810717  1
  O  O42  1  0.05278998  0.54060084  0.45569885  1
  K  K43  1  0.27642894  0.81789052  0.69873834  1
  O  O44  1  0.77697593  0.81726336  0.74510312  1
  O  O45  1  0.49929541  0.09991967  0.45690796  1
  O  O46  1  0.54196441  0.06541774  0.95947796  1
  O  O47  1  0.05644859  0.09987944  0.46214244  1
  O  O48  1  0.50288671  0.54509860  0.46224427  1
  O  O49  1  0.80545849  0.49741763  0.22082418  1
  O  O50  1  0.06480242  0.09079299  0.65528506  1
  Gd  Gd51  1  0.27573216  0.34126925  0.68113112  1
  O  O52  1  0.15785608  0.10426857  0.14418606  1
  O  O53  1  0.47009310  0.61314631  0.68333197  1
  W  W54  1  0.90853429  0.09745366  0.42527893  1
  W  W55  1  0.60722792  0.57880962  0.93241274  1
  O  O56  1  0.60729676  0.00718088  0.72455883  1
  O  O57  1  0.71997201  0.17195897  0.13876978  1
  Ca  Ca58  1  0.98227555  0.79693460  0.14674574  1
  O  O59  1  0.34344238  0.56555307  0.20040482  1
  O  O60  1  0.92675132  0.67196834  0.63112378  1
  K  K61  1  0.40221125  0.20253837  0.14882380  1
  O  O62  1  0.93937045  0.94653016  0.10742506  1
  F  F63  1  0.90410018  0.49292743  0.11563048  1
  O  O64  1  0.54025811  0.65919399  0.34652579  1
  Si  Si65  1  0.35139000  0.47321868  0.54093194  1
  K  K66  1  0.88775694  0.91750729  0.70392370  1
  F  F67  1  0.40405095  0.56082326  0.75238252  1
  Si  Si68  1  0.85985774  0.67605239  0.26513880  1
  O  O69  1  0.40467486  0.18425079  0.58361286  1
  O  O70  1  0.02956123  0.54538912  0.48286706  1
