# generated using pymatgen
data_K2Rb5Li2CaCeHoTi2NbTl2ZnGaBi2Sb2AsHSe(ClO14)2
_symmetry_space_group_name_H-M   'P 1'
_cell_length_a   6.19659805
_cell_length_b   6.36089897
_cell_length_c   8.49795151
_cell_angle_alpha   93.65718842
_cell_angle_beta   93.44322205
_cell_angle_gamma   90.87302399
_symmetry_Int_Tables_number   1
_chemical_formula_structural
K2Rb5Li2CaCeHoTi2NbTl2ZnGaBi2Sb2AsHSe(ClO14)2
_chemical_formula_sum
'Rb5 K2 Li2 Ca1 Ce1 Ho1 Ti2 Nb1 Tl2 Zn1 Ga1 Bi2 Sb2 As1 H1 Se1 Cl2 O28'
_cell_volume   333.60802437
_cell_formula_units_Z   1
loop_
 _symmetry_equiv_pos_site_id
 _symmetry_equiv_pos_as_xyz
  1  'x, y, z'
loop_
 _atom_site_type_symbol
 _atom_site_label
 _atom_site_symmetry_multiplicity
 _atom_site_fract_x
 _atom_site_fract_y
 _atom_site_fract_z
 _atom_site_occupancy
  O  O0  1  0.89277768  0.78566056  0.06030934  1
  Se  Se1  1  0.64929384  0.19948272  0.49997619  1
  Rb  Rb2  1  0.17232580  0.21714282  0.74530816  1
  O  O3  1  0.35452968  0.90301847  0.03504867  1
  O  O4  1  0.66615707  0.21743667  0.70929170  1
  Rb  Rb5  1  0.14828682  0.16311440  0.29095393  1
  As  As6  1  0.15530853  0.70862710  0.99614525  1
  Cl  Cl7  1  0.14697628  0.70118076  0.53116107  1
  Rb  Rb8  1  0.66904998  0.21371977  0.02765174  1
  Rb  Rb9  1  0.61356699  0.69408035  0.29850513  1
  O  O10  1  0.23289312  0.45561010  0.05096845  1
  Rb  Rb11  1  0.65930730  0.71409047  0.74562842  1
  K  K12  1  0.65542126  0.21207938  0.97794509  1
  Bi  Bi13  1  0.18113826  0.78474504  0.31113040  1
  O  O14  1  0.81855536  0.11869071  0.31650406  1
  O  O15  1  0.78353608  0.55248809  0.44832140  1
  Cl  Cl16  1  0.15501209  0.44636455  0.77587861  1
  K  K17  1  0.44811541  0.90869039  0.67315757  1
  O  O18  1  0.25000098  0.15569873  0.28938535  1
  O  O19  1  0.60820043  0.68478674  0.08187354  1
  Nb  Nb20  1  0.91807181  0.45557874  0.21184218  1
  O  O21  1  0.09765139  0.74037993  0.06932110  1
  Bi  Bi22  1  0.07780882  0.81992805  0.64142132  1
  O  O23  1  0.08290173  0.56979185  0.88628501  1
  Ho  Ho24  1  0.08072059  0.31801903  0.13226764  1
  O  O25  1  0.08407030  0.06606425  0.87796003  1
  Tl  Tl26  1  0.57869583  0.30420563  0.63878101  1
  Tl  Tl27  1  0.58408749  0.83503902  0.12687710  1
  O  O28  1  0.07885606  0.06185989  0.38621935  1
  O  O29  1  0.57828182  0.79988748  0.62025189  1
  O  O30  1  0.58243328  0.34581843  0.15545486  1
  Li  Li31  1  0.94013423  0.78576690  0.58922905  1
  O  O32  1  0.41352609  0.90144849  0.49347752  1
  Ga  Ga33  1  0.25902975  0.73302764  0.12596887  1
  Zn  Zn34  1  0.50758278  0.30849120  0.63201153  1
  H  H35  1  0.38983285  0.00265949  0.91564220  1
  O  O36  1  0.97102273  0.41082746  0.54007947  1
  O  O37  1  0.71459025  0.54588491  0.03348014  1
  O  O38  1  0.16508575  0.99642456  0.99290586  1
  Li  Li39  1  0.85485619  0.28609037  0.18322042  1
  Sb  Sb40  1  0.95615190  0.37846088  0.87050146  1
  Ca  Ca41  1  0.05481694  0.98094118  0.17033152  1
  O  O42  1  0.67159790  0.64305502  0.95747501  1
  O  O43  1  0.92344850  0.79448247  0.38690093  1
  O  O44  1  0.24870534  0.10521434  0.96462423  1
  O  O45  1  0.38260171  0.35460648  0.37964883  1
  O  O46  1  0.87004286  0.30131558  0.36245394  1
  O  O47  1  0.48016298  0.88506252  0.24763468  1
  Sb  Sb48  1  0.67547089  0.06275546  0.46512491  1
  Ce  Ce49  1  0.56360197  0.46633178  0.17180547  1
  O  O50  1  0.74056900  0.15135157  0.99004060  1
  Ti  Ti51  1  0.16064978  0.57717341  0.48706335  1
  Ti  Ti52  1  0.45026892  0.86143774  0.85329723  1
  O  O53  1  0.44036734  0.86244047  0.62096024  1
  O  O54  1  0.14848687  0.56585342  0.08813821  1
  O  O55  1  0.17902100  0.58598131  0.72180545  1
