# generated using pymatgen
data_Ba8LiLa2TbCeGd2ErGa3SnB2PPt4S20N
_symmetry_space_group_name_H-M   'P 1'
_cell_length_a   5.11456823
_cell_length_b   5.07620716
_cell_length_c   7.05868673
_cell_angle_alpha   70.18124390
_cell_angle_beta   69.13948822
_cell_angle_gamma   60.55068588
_symmetry_Int_Tables_number   1
_chemical_formula_structural   Ba8LiLa2TbCeGd2ErGa3SnB2PPt4S20N
_chemical_formula_sum
'Ba8 Li1 La2 Tb1 Ce1 Gd2 Er1 Ga3 Sn1 B2 P1 Pt4 S20 N1'
_cell_volume   146.06315454
_cell_formula_units_Z   1
loop_
 _symmetry_equiv_pos_site_id
 _symmetry_equiv_pos_as_xyz
  1  'x, y, z'
loop_
 _atom_site_type_symbol
 _atom_site_label
 _atom_site_symmetry_multiplicity
 _atom_site_fract_x
 _atom_site_fract_y
 _atom_site_fract_z
 _atom_site_occupancy
  S  S0  1  0.36949840  0.37106818  0.35893080  1
  S  S1  1  0.86727786  0.87296993  0.85841966  1
  Pt  Pt2  1  0.73974407  0.76135045  0.21949846  1
  Gd  Gd3  1  0.49446735  0.49977532  0.97059774  1
  S  S4  1  0.12091394  0.14218786  0.08295658  1
  Pt  Pt5  1  0.24193032  0.25135633  0.72197706  1
  S  S6  1  0.62497604  0.63339293  0.58121085  1
  Gd  Gd7  1  0.98996055  0.00721283  0.47217056  1
  B  B8  1  0.73027414  0.02657558  0.37740406  1
  N  N9  1  0.76580143  0.83571357  0.55721414  1
  S  S10  1  0.58264875  0.67998552  0.90279758  1
  S  S11  1  0.48836231  0.29386029  0.36729419  1
  Ba  Ba12  1  0.60673130  0.17896859  0.85656244  1
  S  S13  1  0.04209353  0.37547448  0.73862469  1
  Ba  Ba14  1  0.92496735  0.48611227  0.24781093  1
  S  S15  1  0.94981116  0.97910857  0.20195489  1
  B  B16  1  0.80420291  0.64011323  0.72488844  1
  Ba  Ba17  1  0.25992292  0.83657688  0.55668926  1
  S  S18  1  0.79841387  0.23496300  0.25187504  1
  S  S19  1  0.14278260  0.91624087  0.84332037  1
  S  S20  1  0.14695880  0.91207176  0.43150678  1
  Li  Li21  1  0.37204400  0.81151849  0.64685643  1
  S  S22  1  0.47369418  0.60392821  0.01730646  1
  La  La23  1  0.47021389  0.57327366  0.32003272  1
  P  P24  1  0.95600426  0.89915991  0.63664782  1
  La  La25  1  0.80507714  0.25980914  0.94899273  1
  S  S26  1  0.92809319  0.22127818  0.61047995  1
  S  S27  1  0.60731816  0.53107756  0.65670770  1
  Ga  Ga28  1  0.63785899  0.73122948  0.62624776  1
  Tb  Tb29  1  0.21194170  0.22715688  0.46632704  1
  Ga  Ga30  1  0.35841376  0.72068053  0.20354463  1
  Er  Er31  1  0.99484789  0.72831315  0.94322675  1
  Ga  Ga32  1  0.84719294  0.23276009  0.20825702  1
  Pt  Pt33  1  0.41673499  0.22610532  0.05968712  1
  Pt  Pt34  1  0.78256410  0.73642135  0.35935822  1
  Sn  Sn35  1  0.57544398  0.22359891  0.78005195  1
  S  S36  1  0.98689604  0.87454295  0.92427725  1
  Ba  Ba37  1  0.49531123  0.87010884  0.76016194  1
  S  S38  1  0.99005747  0.87432081  0.26451418  1
  Ba  Ba39  1  0.70820761  0.31448531  0.25660464  1
  Ce  Ce40  1  0.95402610  0.79963976  0.09479363  1
  Ba  Ba41  1  0.73194718  0.35611629  0.59612525  1
  Ba  Ba42  1  0.48517182  0.86685324  0.43036118  1
  S  S43  1  0.23327374  0.35241842  0.76542169  1
  S  S44  1  0.99082685  0.88092005  0.59357190  1
  Ba  Ba45  1  0.71328580  0.31815764  0.93307436  1
  S  S46  1  0.23238678  0.35726535  0.42549425  1
  S  S47  1  0.28862959  0.46987423  0.09604692  1
