# generated using pymatgen
data_K3RbGdU8GaSi2Ni2Te10MoAsP4IrRh3Cl5
_symmetry_space_group_name_H-M   'P 1'
_cell_length_a   4.07229900
_cell_length_b   4.32061529
_cell_length_c   4.85554743
_cell_angle_alpha   93.07030487
_cell_angle_beta   88.81633759
_cell_angle_gamma   97.76748657
_symmetry_Int_Tables_number   1
_chemical_formula_structural   K3RbGdU8GaSi2Ni2Te10MoAsP4IrRh3Cl5
_chemical_formula_sum
'K3 Rb1 Gd1 U8 Ga1 Si2 Ni2 Te10 Mo1 As1 P4 Ir1 Rh3 Cl5'
_cell_volume   84.51941569
_cell_formula_units_Z   1
loop_
 _symmetry_equiv_pos_site_id
 _symmetry_equiv_pos_as_xyz
  1  'x, y, z'
loop_
 _atom_site_type_symbol
 _atom_site_label
 _atom_site_symmetry_multiplicity
 _atom_site_fract_x
 _atom_site_fract_y
 _atom_site_fract_z
 _atom_site_occupancy
  Si  Si0  1  0.62808508  0.02908925  0.12582049  1
  Ni  Ni1  1  0.12433184  0.02562262  0.87359333  1
  Si  Si2  1  0.62853420  0.02823503  0.62577420  1
  Gd  Gd3  1  0.12768865  0.52206701  0.37941310  1
  Ni  Ni4  1  0.62456369  0.52710557  0.87363911  1
  As  As5  1  0.87520254  0.72692758  0.71558547  1
  Cl  Cl6  1  0.37160367  0.32177627  0.06934607  1
  K  K7  1  0.88360661  0.40882137  0.35115463  1
  K  K8  1  0.38050374  0.81932217  0.05873869  1
  Ir  Ir9  1  0.36816269  0.78449166  0.59511214  1
  K  K10  1  0.85672235  0.23442140  0.78063232  1
  Cl  Cl11  1  0.37173077  0.07618337  0.48063451  1
  Cl  Cl12  1  0.79405892  0.98371530  0.80878687  1
  Rb  Rb13  1  0.29349786  0.48873788  0.70330369  1
  Cl  Cl14  1  0.79418629  0.48806047  0.25838131  1
  Ga  Ga15  1  0.79331744  0.98448300  0.19156587  1
  Cl  Cl16  1  0.29287672  0.98957753  0.27747756  1
  P  P17  1  0.73524576  0.99904662  0.04043575  1
  Rh  Rh18  1  0.22565770  0.61801749  0.51011491  1
  P  P19  1  0.92091382  0.62976241  0.83489561  1
  P  P20  1  0.22255506  0.49539578  0.10625251  1
  Mo  Mo21  1  0.99954188  0.09944226  0.68319011  1
  U  U22  1  0.73781049  0.52348804  0.32829443  1
  Rh  Rh23  1  0.23619117  0.99225795  0.14920063  1
  Rh  Rh24  1  0.50942779  0.32939002  0.83082491  1
  P  P25  1  0.49820217  0.03274719  0.51818597  1
  U  U26  1  0.27375650  0.66164136  0.35543117  1
  Te  Te27  1  0.76195472  0.92495817  0.96887422  1
  U  U28  1  0.27120283  0.27091917  0.57665712  1
  Te  Te29  1  0.76974231  0.66140884  0.23915803  1
  U  U30  1  0.77594912  0.27151832  0.96935338  1
  Te  Te31  1  0.27918038  0.66396004  0.70535982  1
  Te  Te32  1  0.51828164  0.99484861  0.63475233  1
  U  U33  1  0.77003777  0.05033507  0.35574624  1
  Te  Te34  1  0.27755973  0.40144229  0.97130287  1
  U  U35  1  0.76968825  0.66208696  0.58192456  1
  U  U36  1  0.26117536  0.05511172  0.96890283  1
  Te  Te37  1  0.27800927  0.92886925  0.23400651  1
  U  U38  1  0.01536882  0.66316730  0.96654999  1
  Te  Te39  1  0.02095738  0.99390984  0.63342035  1
  Te  Te40  1  0.76814389  0.39030212  0.69679749  1
  Te  Te41  1  0.52224088  0.32860917  0.30016437  1
  Te  Te42  1  0.01903803  0.33008328  0.30262351  1
