# generated using pymatgen
data_Ba7LiLa2TbGd2TmAlGa4B2PPt4PbS19N2
_symmetry_space_group_name_H-M   'P 1'
_cell_length_a   5.11456823
_cell_length_b   5.07620716
_cell_length_c   7.05868673
_cell_angle_alpha   70.18124390
_cell_angle_beta   69.13948822
_cell_angle_gamma   60.55068588
_symmetry_Int_Tables_number   1
_chemical_formula_structural   Ba7LiLa2TbGd2TmAlGa4B2PPt4PbS19N2
_chemical_formula_sum
'Ba7 Li1 La2 Tb1 Gd2 Tm1 Al1 Ga4 B2 P1 Pt4 Pb1 S19 N2'
_cell_volume   146.06315454
_cell_formula_units_Z   1
loop_
 _symmetry_equiv_pos_site_id
 _symmetry_equiv_pos_as_xyz
  1  'x, y, z'
loop_
 _atom_site_type_symbol
 _atom_site_label
 _atom_site_symmetry_multiplicity
 _atom_site_fract_x
 _atom_site_fract_y
 _atom_site_fract_z
 _atom_site_occupancy
  Gd  Gd0  1  0.11825367  0.96896654  0.27921039  1
  S  S1  1  0.24923027  0.08733032  0.89186388  1
  S  S2  1  0.74815905  0.59839898  0.39168993  1
  Gd  Gd3  1  0.62128019  0.46675307  0.77721047  1
  S  S4  1  0.99512136  0.83019859  0.66978931  1
  S  S5  1  0.48931605  0.33929428  0.17015392  1
  Pt  Pt6  1  0.37266612  0.21052714  0.53118539  1
  Pt  Pt7  1  0.86473584  0.71281642  0.02924645  1
  Ba  Ba8  1  0.15617435  0.22305723  0.48147112  1
  S  S9  1  0.72208214  0.00191725  0.42097181  1
  S  S10  1  0.74546301  0.69695038  0.60857165  1
  S  S11  1  0.23296519  0.79100424  0.85284889  1
  B  B12  1  0.19681415  0.48015749  0.92623734  1
  S  S13  1  0.98768413  0.35624465  0.08058187  1
  B  B14  1  0.43274567  0.63845921  0.63177103  1
  S  S15  1  0.32718810  0.69729996  0.39593959  1
  S  S16  1  0.43717653  0.32697648  0.77166492  1
  Ba  Ba17  1  0.67814565  0.86123669  0.04016243  1
  La  La18  1  0.81717366  0.48527360  0.42061630  1
  S  S19  1  0.51812613  0.86147982  0.56530911  1
  Li  Li20  1  0.63877785  0.86024237  0.06144530  1
  N  N21  1  0.26630616  0.42298925  0.01182223  1
  La  La22  1  0.21789354  0.24446033  0.72738898  1
  S  S23  1  0.12351701  0.11682934  0.32841080  1
  Al  Al24  1  0.99574608  0.54865968  0.04010831  1
  P  P25  1  0.33063519  0.20685586  0.11388198  1
  N  N26  1  0.65494049  0.28511181  0.13560790  1
  S  S27  1  0.88247442  0.60961276  0.79843003  1
  Tb  Tb28  1  0.47039652  0.55900973  0.17731565  1
  Pt  Pt29  1  0.83749223  0.56159741  0.43867922  1
  Pt  Pt30  1  0.33248758  0.06146441  0.45973149  1
  Ga  Ga31  1  0.25500342  0.55923969  0.59547877  1
  Ga  Ga32  1  0.04620380  0.05824088  0.01197543  1
  Ga  Ga33  1  0.89994168  0.06954543  0.30521446  1
  Ga  Ga34  1  0.11998852  0.56129521  0.88458657  1
  Tm  Tm35  1  0.69860816  0.05691761  0.72031218  1
  Ba  Ba36  1  0.24996340  0.79806668  0.75255334  1
  Pb  Pb37  1  0.49956891  0.29923010  0.91319305  1
  S  S38  1  0.75363290  0.81974316  0.58549798  1
  Ba  Ba39  1  0.25149351  0.81253469  0.41514966  1
  S  S40  1  0.99086690  0.28358033  0.41220525  1
  Ba  Ba41  1  0.48467708  0.29190475  0.24131520  1
  Ba  Ba42  1  0.24696524  0.80228823  0.07300463  1
  S  S43  1  0.98700851  0.28093767  0.06234186  1
  S  S44  1  0.98041356  0.26442829  0.76460612  1
  S  S45  1  0.72189999  0.74529064  0.91272074  1
  S  S46  1  0.74548090  0.81424677  0.24191874  1
  Ba  Ba47  1  0.49542832  0.28717715  0.58616799  1
