# generated using pymatgen
data_K5RbLi5CaTmTi2MnAlCuP2WCl5(O8F5)2
_symmetry_space_group_name_H-M   'P 1'
_cell_length_a   5.98933172
_cell_length_b   6.34596920
_cell_length_c   7.88683271
_cell_angle_alpha   82.46167755
_cell_angle_beta   93.14611816
_cell_angle_gamma   90.42332458
_symmetry_Int_Tables_number   1
_chemical_formula_structural   K5RbLi5CaTmTi2MnAlCuP2WCl5(O8F5)2
_chemical_formula_sum
'K5 Rb1 Li5 Ca1 Tm1 Ti2 Mn1 Al1 Cu1 P2 W1 Cl5 O16 F10'
_cell_volume   296.72498676
_cell_formula_units_Z   1
loop_
 _symmetry_equiv_pos_site_id
 _symmetry_equiv_pos_as_xyz
  1  'x, y, z'
loop_
 _atom_site_type_symbol
 _atom_site_label
 _atom_site_symmetry_multiplicity
 _atom_site_fract_x
 _atom_site_fract_y
 _atom_site_fract_z
 _atom_site_occupancy
  Ti  Ti0  1  0.44286790  0.06183341  0.29807621  1
  Li  Li1  1  0.55162305  0.56321806  0.06527103  1
  Mn  Mn2  1  0.92179549  0.92633647  0.06699286  1
  O  O3  1  0.51140296  0.35459402  0.25827831  1
  O  O4  1  0.97053826  0.14913779  0.86963129  1
  K  K5  1  0.45876631  0.03969481  0.84921706  1
  O  O6  1  0.49167848  0.99768275  0.51583868  1
  O  O7  1  0.87520087  0.62153900  0.96155155  1
  K  K8  1  0.96380222  0.96116751  0.56766993  1
  Ti  Ti9  1  0.04322987  0.45251012  0.83635253  1
  O  O10  1  0.60992563  0.89173323  0.17070574  1
  O  O11  1  0.13681903  0.99777877  0.25391960  1
  O  O12  1  0.99600863  0.50418073  0.61280823  1
  K  K13  1  0.51724863  0.54446942  0.56170225  1
  K  K14  1  0.01492091  0.44408581  0.28044677  1
  O  O15  1  0.34697795  0.51537645  0.88359451  1
  F  F16  1  0.29220271  0.36575326  0.96565479  1
  F  F17  1  0.28765506  0.86856335  0.45982552  1
  Ca  Ca18  1  0.28919682  0.36417872  0.46261412  1
  F  F19  1  0.78665000  0.36493513  0.46311736  1
  Rb  Rb20  1  0.79739368  0.86657429  0.95682508  1
  O  O21  1  0.33501968  0.83099002  0.39958850  1
  Cu  Cu22  1  0.31911567  0.49244648  0.70834887  1
  O  O23  1  0.32886150  0.15293609  0.98085630  1
  O  O24  1  0.68039638  0.49591771  0.67031932  1
  O  O25  1  0.07679127  0.31160229  0.52190340  1
  P  P26  1  0.25096112  0.86926275  0.13160479  1
  O  O27  1  0.71925706  0.33625957  0.27086595  1
  Al  Al28  1  0.76432741  0.64883155  0.96379101  1
  O  O29  1  0.71441793  0.99582553  0.70439941  1
  Li  Li30  1  0.34666118  0.26895344  0.28315651  1
  O  O31  1  0.96970171  0.81909090  0.14106750  1
  F  F32  1  0.03690206  0.59117812  0.83472544  1
  Li  Li33  1  0.71840727  0.88819045  0.38778323  1
  P  P34  1  0.81163979  0.28032637  0.54545975  1
  O  O35  1  0.41127676  0.66898298  0.03435004  1
  Cl  Cl36  1  0.08827066  0.11259063  0.18962136  1
  Cl  Cl37  1  0.64551681  0.94967699  0.94847673  1
  Tm  Tm38  1  0.86416483  0.02665937  0.56997687  1
  Cl  Cl39  1  0.24417908  0.75231481  0.74744391  1
  Li  Li40  1  0.26910508  0.22634195  0.78670228  1
  Cl  Cl41  1  0.86387539  0.53271371  0.56364167  1
  Li  Li42  1  0.46175298  0.83501220  0.34905016  1
  Cl  Cl43  1  0.48821878  0.30735850  0.39476106  1
  K  K44  1  0.77161634  0.05771577  0.37261692  1
  F  F45  1  0.55364758  0.29360110  0.92847401  1
  F  F46  1  0.18155704  0.29268625  0.60416406  1
  F  F47  1  0.54075629  0.64261681  0.59466863  1
  F  F48  1  0.00354552  0.48104632  0.14621937  1
  F  F49  1  0.99545932  0.83018965  0.81696475  1
  F  F50  1  0.35700771  0.83333308  0.13457054  1
  W  W51  1  0.27360713  0.56032473  0.86803925  1
