# generated using pymatgen
data_LiCaCeY3MgTi2ZnCrFe3Co8Ag2B5N7ClO19F11
_symmetry_space_group_name_H-M   'P 1'
_cell_length_a   5.77787256
_cell_length_b   5.78773308
_cell_length_c   6.32254696
_cell_angle_alpha   106.57270813
_cell_angle_beta   83.77281189
_cell_angle_gamma   88.57794189
_symmetry_Int_Tables_number   1
_chemical_formula_structural   LiCaCeY3MgTi2ZnCrFe3Co8Ag2B5N7ClO19F11
_chemical_formula_sum
'Li1 Ca1 Ce1 Y3 Mg1 Ti2 Zn1 Cr1 Fe3 Co8 Ag2 B5 N7 Cl1 O19 F11'
_cell_volume   201.10685677
_cell_formula_units_Z   1
loop_
 _symmetry_equiv_pos_site_id
 _symmetry_equiv_pos_as_xyz
  1  'x, y, z'
loop_
 _atom_site_type_symbol
 _atom_site_label
 _atom_site_symmetry_multiplicity
 _atom_site_fract_x
 _atom_site_fract_y
 _atom_site_fract_z
 _atom_site_occupancy
  Ca  Ca0  1  0.40726906  0.40297031  0.50565583  1
  Y  Y1  1  0.12692362  0.53637689  0.06742303  1
  Y  Y2  1  0.25440085  0.96693873  0.78495950  1
  Mg  Mg3  1  0.51150060  0.84254718  0.25077003  1
  N  N4  1  0.32144013  0.18203452  0.14413379  1
  N  N5  1  0.87205499  0.87643796  0.99027169  1
  N  N6  1  0.06090940  0.29969940  0.72815669  1
  N  N7  1  0.49449649  0.64144176  0.89790016  1
  Y  Y8  1  0.97338659  0.12918505  0.36858889  1
  N  N9  1  0.16694018  0.76889718  0.43100286  1
  B  B10  1  0.72543961  0.73386115  0.86157334  1
  N  N11  1  0.63465834  0.01748565  0.55749422  1
  Cr  Cr12  1  0.83696747  0.73658556  0.53517669  1
  Ce  Ce13  1  0.68827498  0.25438210  0.94085413  1
  N  N14  1  0.77170873  0.48740870  0.29382375  1
  O  O15  1  0.16547410  0.40438107  0.45452905  1
  B  B16  1  0.38812464  0.37555543  0.98374838  1
  O  O17  1  0.59022886  0.26810953  0.87416595  1
  O  O18  1  0.14261708  0.41490644  0.93043351  1
  B  B19  1  0.17157991  0.94487977  0.17624117  1
  Fe  Fe20  1  0.65746862  0.94994843  0.86419368  1
  F  F21  1  0.79220802  0.66734904  0.80293345  1
  Fe  Fe22  1  0.90098476  0.36417359  0.67870271  1
  O  O23  1  0.12687775  0.87729907  0.35591230  1
  Fe  Fe24  1  0.90399510  0.34676814  0.19247413  1
  O  O25  1  0.46900901  0.45202878  0.18722376  1
  O  O26  1  0.63676959  0.34598890  0.45135051  1
  B  B27  1  0.15137693  0.92843199  0.55585456  1
  O  O28  1  0.94781345  0.02889443  0.08651043  1
  O  O29  1  0.94074887  0.04775497  0.65973639  1
  B  B30  1  0.42172945  0.40458190  0.37804720  1
  O  O31  1  0.37473613  0.86615956  0.65390527  1
  O  O32  1  0.41506478  0.94441587  0.08715954  1
  F  F33  1  0.82547474  0.32312453  0.03226842  1
  F  F34  1  0.34654975  0.31880784  0.97177315  1
  Zn  Zn35  1  0.11809655  0.31641662  0.26596659  1
  F  F36  1  0.12473991  0.82214719  0.26761746  1
  F  F37  1  0.41819179  0.31938952  0.49223626  1
  F  F38  1  0.89844912  0.32775843  0.56884795  1
  Ti  Ti39  1  0.61945629  0.32284597  0.76957685  1
  F  F40  1  0.62263972  0.82665515  0.76616174  1
  F  F41  1  0.45421410  0.46900463  0.78352976  1
  Ag  Ag42  1  0.37571579  0.09969454  0.77837533  1
  Li  Li43  1  0.81629765  0.89154190  0.07086343  1
  O  O44  1  0.77306181  0.77233970  0.80434299  1
  F  F45  1  0.20087117  0.76220983  0.09151003  1
  Cl  Cl46  1  0.32185051  0.17927991  0.36705911  1
  Ag  Ag47  1  0.17305282  0.72727311  0.51020795  1
  Ti  Ti48  1  0.58078498  0.53183866  0.99145275  1
  F  F49  1  0.87773865  0.24161156  0.95784473  1
  F  F50  1  0.64028418  0.59840399  0.24353766  1
  Co  Co51  1  0.31156039  0.53608263  0.02989227  1
  Co  Co52  1  0.80997813  0.29252809  0.28390893  1
  O  O53  1  0.31162253  0.28555852  0.27577093  1
  Co  Co54  1  0.80896229  0.79230404  0.78030062  1
  O  O55  1  0.81054294  0.53680855  0.53143382  1
  Co  Co56  1  0.30830100  0.53666580  0.53169101  1
  Co  Co57  1  0.80744016  0.78563726  0.27949777  1
  O  O58  1  0.80662382  0.03426437  0.02638097  1
  Co  Co59  1  0.31073847  0.03310560  0.03183339  1
  Co  Co60  1  0.31200036  0.03513314  0.53590870  1
  O  O61  1  0.30862579  0.78241634  0.77931899  1
  Co  Co62  1  0.80884600  0.28759477  0.77827549  1
  O  O63  1  0.80820191  0.03659996  0.52853727  1
  O  O64  1  0.31071019  0.78526855  0.27734214  1
  O  O65  1  0.80848277  0.53781873  0.02698648  1
  O  O66  1  0.31199941  0.28516072  0.78195459  1
