# generated using pymatgen
data_CsSr2LaTb2CeNdGd2AlGa2Sn3B3IrPt3Pb2CS15I6N
_symmetry_space_group_name_H-M   'P 1'
_cell_length_a   5.11456823
_cell_length_b   5.07620716
_cell_length_c   7.05868673
_cell_angle_alpha   70.18124390
_cell_angle_beta   69.13948822
_cell_angle_gamma   60.55068588
_symmetry_Int_Tables_number   1
_chemical_formula_structural
CsSr2LaTb2CeNdGd2AlGa2Sn3B3IrPt3Pb2CS15I6N
_chemical_formula_sum
'Cs1 Sr2 La1 Tb2 Ce1 Nd1 Gd2 Al1 Ga2 Sn3 B3 Ir1 Pt3 Pb2 C1 S15 I6 N1'
_cell_volume   146.06315454
_cell_formula_units_Z   1
loop_
 _symmetry_equiv_pos_site_id
 _symmetry_equiv_pos_as_xyz
  1  'x, y, z'
loop_
 _atom_site_type_symbol
 _atom_site_label
 _atom_site_symmetry_multiplicity
 _atom_site_fract_x
 _atom_site_fract_y
 _atom_site_fract_z
 _atom_site_occupancy
  Gd  Gd0  1  0.22654794  0.18709645  0.31344986  1
  S  S1  1  0.09186324  0.05705777  0.70420796  1
  Pt  Pt2  1  0.97685218  0.94111550  0.06365550  1
  S  S3  1  0.86054873  0.81368887  0.42565921  1
  S  S4  1  0.34865996  0.31255904  0.92900616  1
  Gd  Gd5  1  0.72416580  0.68957758  0.81276965  1
  S  S6  1  0.59428674  0.55686271  0.20225567  1
  Pt  Pt7  1  0.47951525  0.43784145  0.56335056  1
  Sn  Sn8  1  0.13092567  0.19795577  0.66049862  1
  S  S9  1  0.71322942  0.16145268  0.70592481  1
  S  S10  1  0.39256984  0.80771530  0.55310279  1
  S  S11  1  0.83077127  0.63298553  0.92675477  1
  Pb  Pb12  1  0.36592957  0.55072165  0.92680746  1
  B  B13  1  0.63883710  0.92922223  0.86144120  1
  S  S14  1  0.21647343  0.47810158  0.36557066  1
  Cs  Cs15  1  0.79373193  0.03781531  0.24646746  1
  B  B16  1  0.31476122  0.63253707  0.45809740  1
  S  S17  1  0.33291408  0.03080211  0.97668254  1
  S  S18  1  0.76345551  0.79913247  0.58874744  1
  S  S19  1  0.19268171  0.04484591  0.66469699  1
  B  B20  1  0.59225225  0.36380434  0.06344746  1
  La  La21  1  0.39376873  0.69881910  0.85502899  1
  S  S22  1  0.71548814  0.75620782  0.18531479  1
  S  S23  1  0.15066582  0.48270944  0.36855966  1
  N  N24  1  0.35984597  0.10599452  0.09024095  1
  S  S25  1  0.83355403  0.33208418  0.92646194  1
  Ce  Ce26  1  0.54556322  0.17928405  0.38319123  1
  Al  Al27  1  0.03376594  0.18084644  0.12729584  1
  Ga  Ga28  1  0.50699282  0.91607314  0.33119375  1
  Tb  Tb29  1  0.08859723  0.76481593  0.62890530  1
  Pt  Pt30  1  0.93410772  0.07892329  0.13367240  1
  Ga  Ga31  1  0.51375306  0.91619796  0.92618525  1
  Ir  Ir32  1  0.38785669  0.17850569  0.62135226  1
  Sn  Sn33  1  0.80157077  0.35126299  0.82743621  1
  Tb  Tb34  1  0.24027750  0.51074296  0.13179430  1
  Sn  Sn35  1  0.80705273  0.35908639  0.42844585  1
  Nd  Nd36  1  0.15298119  0.88522124  0.54283732  1
  I  I37  1  0.28191805  0.15549840  0.73843789  1
  I  I38  1  0.59737831  0.78672951  0.91158777  1
  C  C39  1  0.86915678  0.34166923  0.24480456  1
  Sr  Sr40  1  0.44340643  0.48849332  0.14402471  1
  Sr  Sr41  1  0.98944962  0.57182616  0.77184737  1
  S  S42  1  0.56814426  0.72088408  0.64674222  1
  I  I43  1  0.13179544  0.88242185  0.14308845  1
  I  I44  1  0.85165113  0.29398581  0.51348507  1
  I  I45  1  0.58544761  0.75887501  0.38213342  1
  Pb  Pb46  1  0.29802233  0.18900594  0.31621438  1
  I  I47  1  0.85009682  0.29827800  0.97911072  1
