# generated using pymatgen
data_Cs2SrLa2Nd2Gd2ErTmAl3Ga4BP2Pt4S15(I3N)2
_symmetry_space_group_name_H-M   'P 1'
_cell_length_a   5.11456823
_cell_length_b   5.07620716
_cell_length_c   7.05868673
_cell_angle_alpha   70.18124390
_cell_angle_beta   69.13948822
_cell_angle_gamma   60.55068588
_symmetry_Int_Tables_number   1
_chemical_formula_structural
Cs2SrLa2Nd2Gd2ErTmAl3Ga4BP2Pt4S15(I3N)2
_chemical_formula_sum
'Cs2 Sr1 La2 Nd2 Gd2 Er1 Tm1 Al3 Ga4 B1 P2 Pt4 S15 I6 N2'
_cell_volume   146.06315454
_cell_formula_units_Z   1
loop_
 _symmetry_equiv_pos_site_id
 _symmetry_equiv_pos_as_xyz
  1  'x, y, z'
loop_
 _atom_site_type_symbol
 _atom_site_label
 _atom_site_symmetry_multiplicity
 _atom_site_fract_x
 _atom_site_fract_y
 _atom_site_fract_z
 _atom_site_occupancy
  Pt  Pt0  1  0.59196275  0.49994227  0.10311493  1
  Gd  Gd1  1  0.83339679  0.74879402  0.35671353  1
  S  S2  1  0.46443963  0.38028178  0.47199696  1
  S  S3  1  0.97015828  0.87733573  0.96838504  1
  Gd  Gd4  1  0.33745122  0.24935026  0.85548186  1
  S  S5  1  0.20095280  0.12154508  0.24387372  1
  Pt  Pt6  1  0.08558355  0.99925768  0.60736525  1
  S  S7  1  0.70930415  0.62643021  0.73407364  1
  S  S8  1  0.50789428  0.57482338  0.59632635  1
  S  S9  1  0.13222626  0.44252384  0.34056801  1
  B  B10  1  0.23003046  0.81553686  0.70295590  1
  S  S11  1  0.73687762  0.03912545  0.36695263  1
  S  S12  1  0.92764765  0.75428867  0.75805718  1
  Cs  Cs13  1  0.70891505  0.30418763  0.95024848  1
  Al  Al14  1  0.84157336  0.70028192  0.50355983  1
  Cs  Cs15  1  0.34523144  0.88038146  0.19941005  1
  Al  Al16  1  0.39248806  0.28887478  0.51220345  1
  S  S17  1  0.27344033  0.08439884  0.75919670  1
  S  S18  1  0.21688704  0.09353905  0.69502169  1
  La  La19  1  0.53749394  0.66385871  0.70131123  1
  S  S20  1  0.68983030  0.92667663  0.39638242  1
  S  S21  1  0.96371680  0.50551754  0.89320529  1
  La  La22  1  0.12985337  0.79014951  0.19540870  1
  P  P23  1  0.07013708  0.20660475  0.94645345  1
  S  S24  1  0.32137087  0.34073174  0.20465219  1
  S  S25  1  0.97450119  0.51244962  0.49175468  1
  P  P26  1  0.08083507  0.22175331  0.44725803  1
  S  S27  1  0.68089050  0.93617511  0.00633515  1
  Ga  Ga28  1  0.42977935  0.86704934  0.08264977  1
  Pt  Pt29  1  0.28420955  0.87548816  0.36012158  1
  Er  Er30  1  0.83935308  0.37437648  0.25310668  1
  Ga  Ga31  1  0.49839690  0.37394091  0.94259167  1
  Ga  Ga32  1  0.21497214  0.37827438  0.51203102  1
  Ga  Ga33  1  0.70543444  0.87122381  0.52208287  1
  Tm  Tm34  1  0.08234888  0.87740809  0.77658671  1
  Pt  Pt35  1  0.63551229  0.37810415  0.67182523  1
  Al  Al36  1  0.46743312  0.75648016  0.79665053  1
  Sr  Sr37  1  0.76732266  0.37629688  0.24794319  1
  I  I38  1  0.89773500  0.62180859  0.65303141  1
  Nd  Nd39  1  0.17401472  0.17991345  0.70193100  1
  I  I40  1  0.03554334  0.89454931  0.93934077  1
  I  I41  1  0.05506357  0.94266945  0.24426816  1
  I  I42  1  0.31380805  0.46339297  0.07674670  1
  Nd  Nd43  1  0.75167257  0.33361053  0.89185774  1
  I  I44  1  0.62157655  0.06669248  0.52419865  1
  N  N45  1  0.31063282  0.44649652  0.82630551  1
  N  N46  1  0.60840666  0.05948569  0.76629621  1
  I  I47  1  0.32444885  0.49818116  0.40275314  1
