# generated using pymatgen
data_K2RbGdZrU7GaSi2Ni2Te10MoAsP2Rh4AuCl7
_symmetry_space_group_name_H-M   'P 1'
_cell_length_a   4.07229900
_cell_length_b   4.32061529
_cell_length_c   4.85554743
_cell_angle_alpha   93.07030487
_cell_angle_beta   88.81633759
_cell_angle_gamma   97.76748657
_symmetry_Int_Tables_number   1
_chemical_formula_structural   K2RbGdZrU7GaSi2Ni2Te10MoAsP2Rh4AuCl7
_chemical_formula_sum
'K2 Rb1 Gd1 Zr1 U7 Ga1 Si2 Ni2 Te10 Mo1 As1 P2 Rh4 Au1 Cl7'
_cell_volume   84.51941569
_cell_formula_units_Z   1
loop_
 _symmetry_equiv_pos_site_id
 _symmetry_equiv_pos_as_xyz
  1  'x, y, z'
loop_
 _atom_site_type_symbol
 _atom_site_label
 _atom_site_symmetry_multiplicity
 _atom_site_fract_x
 _atom_site_fract_y
 _atom_site_fract_z
 _atom_site_occupancy
  Ni  Ni0  1  0.42627460  0.09989101  0.91561675  1
  Si  Si1  1  0.92146438  0.09759835  0.66386902  1
  Si  Si2  1  0.92583227  0.09426210  0.16643263  1
  Ni  Ni3  1  0.92537558  0.59516656  0.91452807  1
  Gd  Gd4  1  0.42616528  0.59265602  0.41652957  1
  Cl  Cl5  1  0.55324274  0.15483722  0.51063514  1
  Cl  Cl6  1  0.05879979  0.64195377  0.35562086  1
  K  K7  1  0.05102207  0.12752512  0.22794050  1
  Au  Au8  1  0.55314326  0.21202214  0.82065111  1
  K  K9  1  0.54929298  0.67148322  0.61864543  1
  Cl  Cl10  1  0.55316025  0.93390530  0.98921239  1
  Cl  Cl11  1  0.05429075  0.41217184  0.86823702  1
  Cl  Cl12  1  0.41809973  0.91401148  0.02900089  1
  Ga  Ga13  1  0.41452178  0.41984874  0.95750517  1
  Cl  Cl14  1  0.41460836  0.41288432  0.56713879  1
  Rb  Rb15  1  0.91769594  0.92043805  0.47479445  1
  Cl  Cl16  1  0.92140949  0.41950655  0.04189397  1
  Zr  Zr17  1  0.49031532  0.60140967  0.76543182  1
  P  P18  1  0.34291273  0.72642136  0.26453993  1
  As  As19  1  0.90483946  0.01581339  0.75935262  1
  Rh  Rh20  1  0.00150872  0.49667501  0.01134041  1
  Mo  Mo21  1  0.86837149  0.96669185  0.25688097  1
  Rh  Rh22  1  0.99126267  0.49796537  0.51596063  1
  Rh  Rh23  1  0.39032435  0.10442653  0.51660872  1
  P  P24  1  0.61945969  0.45105365  0.26327235  1
  Rh  Rh25  1  0.39579839  0.10640888  0.00512435  1
  Te  Te26  1  0.36980277  0.29382727  0.72092533  1
  U  U27  1  0.35922378  0.90612769  0.45343649  1
  U  U28  1  0.86829871  0.68858469  0.45669943  1
  U  U29  1  0.86403251  0.91112089  0.06855097  1
  Te  Te30  1  0.85817498  0.03544464  0.46096572  1
  Te  Te31  1  0.61720806  0.96357280  0.78522056  1
  U  U32  1  0.11448153  0.29977754  0.45756656  1
  Te  Te33  1  0.11303483  0.63178194  0.12175249  1
  U  U34  1  0.36609775  0.29319152  0.06501070  1
  Te  Te35  1  0.36804208  0.02748452  0.18473777  1
  Te  Te36  1  0.86216414  0.56830376  0.72324419  1
  Te  Te37  1  0.61404210  0.63159144  0.12305045  1
  U  U38  1  0.36822906  0.68341774  0.84021330  1
  Te  Te39  1  0.37020254  0.56182212  0.45132017  1
  Te  Te40  1  0.11775704  0.96604204  0.78656244  1
  U  U41  1  0.86560649  0.29856968  0.84288311  1
  Te  Te42  1  0.85603470  0.29727417  0.18665330  1
