# generated using pymatgen
data_K2Na2La3Yb2ScUPaBe2Al2Zn3SnGeAs2PRu3CSe5S19N11
_symmetry_space_group_name_H-M   'P 1'
_cell_length_a   5.14198351
_cell_length_b   6.12207842
_cell_length_c   6.60817671
_cell_angle_alpha   84.47502899
_cell_angle_beta   82.72527313
_cell_angle_gamma   85.29515076
_symmetry_Int_Tables_number   1
_chemical_formula_structural
K2Na2La3Yb2ScUPaBe2Al2Zn3SnGeAs2PRu3CSe5S19N11
_chemical_formula_sum
;
K2 Na2 Yb2 La3 Sc1 U1 Pa1 Be2 Al2 Zn3 Sn1 Ge1 As2 P1 Ru3 Se5 C1 S19
N11
;
_cell_volume   204.87545568
_cell_formula_units_Z   1
loop_
 _symmetry_equiv_pos_site_id
 _symmetry_equiv_pos_as_xyz
  1  'x, y, z'
loop_
 _atom_site_type_symbol
 _atom_site_label
 _atom_site_symmetry_multiplicity
 _atom_site_fract_x
 _atom_site_fract_y
 _atom_site_fract_z
 _atom_site_occupancy
  Sn  Sn0  1  0.40435278  0.32509166  0.26120371  1
  Se  Se1  1  0.90803421  0.33004090  0.75805098  1
  Se  Se2  1  0.39334905  0.95080733  0.96900505  1
  Se  Se3  1  0.42075434  0.70207459  0.55723262  1
  Pa  Pa4  1  0.90742975  0.83459187  0.75958562  1
  Se  Se5  1  0.91521591  0.03907003  0.35364550  1
  Se  Se6  1  0.90835738  0.62474042  0.16869017  1
  S  S7  1  0.26506618  0.76657641  0.09359991  1
  Be  Be8  1  0.35885248  0.07563287  0.90211672  1
  Zn  Zn9  1  0.58415043  0.27310222  0.53173018  1
  Be  Be10  1  0.96215343  0.66311193  0.72537154  1
  S  S11  1  0.65307313  0.15299995  0.31305495  1
  S  S12  1  0.05439289  0.54767597  0.52945685  1
  S  S13  1  0.86360669  0.30887616  0.89490885  1
  Zn  Zn14  1  0.76164728  0.49338588  0.10129546  1
  Zn  Zn15  1  0.17134698  0.88038141  0.31498402  1
  S  S16  1  0.44709742  0.88841921  0.73378038  1
  S  S17  1  0.67332393  0.04224715  0.27965429  1
  U  U18  1  0.76115602  0.10708067  0.82543528  1
  S  S19  1  0.77307516  0.85436237  0.00641818  1
  Yb  Yb20  1  0.20909065  0.52231050  0.61545402  1
  S  S21  1  0.28213352  0.37100735  0.13305697  1
  As  As22  1  0.94629246  0.65243989  0.32064962  1
  S  S23  1  0.70523047  0.70038813  0.49240133  1
  S  S24  1  0.19849411  0.19584392  0.92692596  1
  S  S25  1  0.68656862  0.45958740  0.76338100  1
  S  S26  1  0.11870609  0.86942142  0.70517904  1
  Yb  Yb27  1  0.21689172  0.99000424  0.12825954  1
  Na  Na28  1  0.15752849  0.56807899  0.92346716  1
  Na  Na29  1  0.14325012  0.98220849  0.46003991  1
  S  S30  1  0.21083574  0.37806019  0.40542388  1
  As  As31  1  0.58968794  0.34073836  0.26393563  1
  S  S32  1  0.31948236  0.12030803  0.67621428  1
  K  K33  1  0.84934497  0.80009747  0.53437579  1
  N  N34  1  0.23519324  0.93954813  0.24066503  1
  Ge  Ge35  1  0.29689845  0.23558357  0.42423123  1
  Ru  Ru36  1  0.78185129  0.43599027  0.87569165  1
  N  N37  1  0.04920255  0.24024463  0.91253126  1
  K  K38  1  0.62428159  0.02433375  0.03643635  1
  N  N39  1  0.23424932  0.50402319  0.37093639  1
  N  N40  1  0.45014840  0.21796130  0.66061324  1
  Ru  Ru41  1  0.24995035  0.41461533  0.81761277  1
  Ru  Ru42  1  0.24635237  0.60232788  0.17526476  1
  N  N43  1  0.98585415  0.62463236  0.80281508  1
  N  N44  1  0.58117735  0.55442107  0.05439955  1
  N  N45  1  0.55087370  0.92292172  0.42412376  1
  La  La46  1  0.55079585  0.17038663  0.71957612  1
  C  C47  1  0.05378384  0.17442545  0.71295631  1
  Sc  Sc48  1  0.08016676  0.38338801  0.06595346  1
  S  S49  1  0.11069579  0.53987241  0.40466717  1
  P  P50  1  0.43978992  0.70163506  0.51408416  1
  N  N51  1  0.96119887  0.29077619  0.78786194  1
  Al  Al52  1  0.51835805  0.72928679  0.92802769  1
  N  N53  1  0.27886894  0.66535741  0.02929646  1
  Al  Al54  1  0.40531081  0.91855687  0.19903317  1
  S  S55  1  0.18394779  0.07266925  0.11885270  1
  S  S56  1  0.70665222  0.07405052  0.07764852  1
  N  N57  1  0.12957898  0.04956425  0.63145864  1
  La  La58  1  0.05352289  0.70916176  0.77721184  1
  S  S59  1  0.74093026  0.56841016  0.99570704  1
  La  La60  1  0.89558381  0.87070811  0.32941526  1
  N  N61  1  0.41885242  0.78837484  0.71377105  1
  S  S62  1  0.63289893  0.51979780  0.50488400  1
