# generated using pymatgen
data_Cs2K5Ba2NaLiCa2U3MnCrInFeCu3BP3Rh2S23Cl7O6
_symmetry_space_group_name_H-M   'P 1'
_cell_length_a   6.16562462
_cell_length_b   6.47381926
_cell_length_c   7.14673281
_cell_angle_alpha   115.88598633
_cell_angle_beta   99.69436646
_cell_angle_gamma   91.25775909
_symmetry_Int_Tables_number   1
_chemical_formula_structural
Cs2K5Ba2NaLiCa2U3MnCrInFeCu3BP3Rh2S23Cl7O6
_chemical_formula_sum
'Cs2 K5 Ba2 Na1 Li1 Ca2 U3 Mn1 Cr1 In1 Fe1 Cu3 B1 P3 Rh2 S23 Cl7 O6'
_cell_volume   251.50592218
_cell_formula_units_Z   1
loop_
 _symmetry_equiv_pos_site_id
 _symmetry_equiv_pos_as_xyz
  1  'x, y, z'
loop_
 _atom_site_type_symbol
 _atom_site_label
 _atom_site_symmetry_multiplicity
 _atom_site_fract_x
 _atom_site_fract_y
 _atom_site_fract_z
 _atom_site_occupancy
  O  O0  1  0.36874846  0.64001626  0.73486030  1
  O  O1  1  0.85517955  0.83363700  0.53050119  1
  K  K2  1  0.08893795  0.43642709  0.33728045  1
  O  O3  1  0.32546410  0.05007384  0.14674813  1
  K  K4  1  0.59418052  0.44194511  0.34082931  1
  Cs  Cs5  1  0.83612567  0.77537620  0.99864906  1
  O  O6  1  0.80934674  0.24225302  0.94083714  1
  O  O7  1  0.85879415  0.24580309  0.52907360  1
  P  P8  1  0.33758450  0.77802789  0.01747829  1
  P  P9  1  0.83300525  0.10410798  0.66571152  1
  O  O10  1  0.32387960  0.63524944  0.14330459  1
  Cs  Cs11  1  0.33058512  0.11218654  0.67504215  1
  S  S12  1  0.11698462  0.32705992  0.02115253  1
  S  S13  1  0.09509871  0.79324961  0.97469467  1
  U  U14  1  0.59771270  0.50821072  0.26120979  1
  K  K15  1  0.07339089  0.26237109  0.54676306  1
  S  S16  1  0.04607987  0.71242499  0.40012801  1
  Mn  Mn17  1  0.81384432  0.96530634  0.89728487  1
  S  S18  1  0.62422884  0.85027236  0.50607622  1
  S  S19  1  0.57742041  0.66955298  0.95257396  1
  Cu  Cu20  1  0.33948919  0.94069910  0.35628000  1
  S  S21  1  0.61121285  0.19861935  0.98398840  1
  Cr  Cr22  1  0.85462266  0.51016200  0.98131770  1
  S  S23  1  0.59883517  0.32409084  0.54816067  1
  Cl  Cl24  1  0.42013299  0.61994082  0.40106672  1
  K  K25  1  0.41016185  0.11974756  0.91020775  1
  K  K26  1  0.91114235  0.61952221  0.40770447  1
  In  In27  1  0.65673000  0.37538460  0.15720922  1
  Cl  Cl28  1  0.90325701  0.12703168  0.40403122  1
  Na  Na29  1  0.16294478  0.87652427  0.65219522  1
  Cl  Cl30  1  0.90298033  0.12747966  0.91401541  1
  Cl  Cl31  1  0.41856101  0.61782122  0.91166914  1
  Cl  Cl32  1  0.41999924  0.13111822  0.39905593  1
  Cl  Cl33  1  0.90200311  0.61889607  0.91353011  1
  Rh  Rh34  1  0.27302897  0.16276327  0.80499852  1
  Rh  Rh35  1  0.42293823  0.48723280  0.41659409  1
  S  S36  1  0.29659450  0.77530634  0.30373031  1
  S  S37  1  0.18992481  0.50914514  0.71020013  1
  U  U38  1  0.15243852  0.13794231  0.36148357  1
  S  S39  1  0.00011546  0.04681004  0.69983184  1
  S  S40  1  0.84771359  0.49714029  0.43362069  1
  S  S41  1  0.40685725  0.40861008  0.13466856  1
  P  P42  1  0.53821200  0.19438484  0.53989333  1
  S  S43  1  0.69524968  0.99410135  0.39976987  1
  U  U44  1  0.70924324  0.40389836  0.77740949  1
  S  S45  1  0.97621882  0.24594650  0.05377802  1
  Cl  Cl46  1  0.51687711  0.78449428  0.82481611  1
  Ba  Ba47  1  0.91788805  0.75206518  0.06533995  1
  S  S48  1  0.48317817  0.13942271  0.02545903  1
  Li  Li49  1  0.31642389  0.38544685  0.22241499  1
  S  S50  1  0.52096140  0.26640126  0.08751310  1
  S  S51  1  0.97954851  0.91915888  0.51258183  1
  Cu  Cu52  1  0.31656837  0.82235575  0.62346596  1
  S  S53  1  0.55302215  0.48243180  0.57140172  1
  S  S54  1  0.12289111  0.88436848  0.23029622  1
  Fe  Fe55  1  0.48538512  0.17883332  0.92659009  1
  Ca  Ca56  1  0.10619994  0.74721557  0.04568624  1
  B  B57  1  0.72707719  0.62764883  0.49059749  1
  S  S58  1  0.62265503  0.46950561  0.37162101  1
  S  S59  1  0.97372544  0.18001373  0.93173701  1
  Ba  Ba60  1  0.87087280  0.60466099  0.78722394  1
  Ca  Ca61  1  0.41258520  0.00130844  0.41532576  1
  S  S62  1  0.50038999  0.68504810  0.93049347  1
  Cu  Cu63  1  0.78799719  0.06808423  0.17612788  1
  S  S64  1  0.34492657  0.08962476  0.76225096  1
