# generated using pymatgen
data_Na4La3YbMg2Sc2UPaZn2Cd2InSnGeAs3PCSe4S17N8ClO7
_symmetry_space_group_name_H-M   'P 1'
_cell_length_a   5.14198351
_cell_length_b   6.12207842
_cell_length_c   6.60817671
_cell_angle_alpha   84.47502899
_cell_angle_beta   82.72527313
_cell_angle_gamma   85.29515076
_symmetry_Int_Tables_number   1
_chemical_formula_structural
Na4La3YbMg2Sc2UPaZn2Cd2InSnGeAs3PCSe4S17N8ClO7
_chemical_formula_sum
;
Na4 Yb1 La3 Mg2 Sc2 U1 Pa1 Zn2 Cd2 In1 Sn1 Ge1 As3 P1 Se4 C1 S17 N8
Cl1 O7
;
_cell_volume   204.87545568
_cell_formula_units_Z   1
loop_
 _symmetry_equiv_pos_site_id
 _symmetry_equiv_pos_as_xyz
  1  'x, y, z'
loop_
 _atom_site_type_symbol
 _atom_site_label
 _atom_site_symmetry_multiplicity
 _atom_site_fract_x
 _atom_site_fract_y
 _atom_site_fract_z
 _atom_site_occupancy
  Pa  Pa0  1  0.26709023  0.93397039  0.68057108  1
  Sn  Sn1  1  0.77089864  0.93436521  0.18282422  1
  Se  Se2  1  0.04812651  0.20316866  0.40357724  1
  Cd  Cd3  1  0.76557010  0.43694049  0.68348300  1
  Se  Se4  1  0.47246867  0.66477603  0.40188760  1
  Se  Se5  1  0.46864283  0.19801681  0.95146435  1
  Se  Se6  1  0.05034390  0.65608835  0.95850867  1
  N  N7  1  0.14446045  0.09372016  0.15499833  1
  Cd  Cd8  1  0.05819866  0.72841322  0.30608025  1
  S  S9  1  0.74113101  0.60795784  0.93037385  1
  Zn  Zn10  1  0.90899509  0.80260515  0.65997857  1
  In  In11  1  0.23020785  0.91259211  0.96053725  1
  Mg  Mg12  1  0.50999397  0.44376880  0.51119035  1
  N  N13  1  0.99009812  0.58016908  0.54004872  1
  Mg  Mg14  1  0.64246595  0.26894495  0.16166505  1
  S  S15  1  0.39407855  0.06725442  0.68225271  1
  O  O16  1  0.56995404  0.51021498  0.29719695  1
  S  S17  1  0.54537708  0.42837745  0.50769103  1
  U  U18  1  0.67964405  0.49069870  0.29939139  1
  S  S19  1  0.69709229  0.60254532  0.76988375  1
  Yb  Yb20  1  0.99945086  0.65911514  0.55275965  1
  Na  Na21  1  0.03457604  0.17996643  0.53461426  1
  S  S22  1  0.91094393  0.56106520  0.07935706  1
  S  S23  1  0.29129341  0.34240571  0.03455929  1
  S  S24  1  0.50798821  0.92523915  0.56808758  1
  Ge  Ge25  1  0.33303207  0.35114366  0.83699048  1
  S  S26  1  0.68724549  0.08339307  0.81915492  1
  As  As27  1  0.08838076  0.87408310  0.04396557  1
  S  S28  1  0.21636499  0.29298541  0.28371766  1
  As  As29  1  0.37512049  0.87123293  0.75411671  1
  S  S30  1  0.15657966  0.71266025  0.31978509  1
  S  S31  1  0.52541459  0.94113678  0.05900550  1
  As  As32  1  0.89749199  0.95384765  0.22671264  1
  O  O33  1  0.25077862  0.61822104  0.77424514  1
  O  O34  1  0.20712855  0.16189489  0.34627274  1
  N  N35  1  0.04665374  0.20713685  0.21960783  1
  O  O36  1  0.02247735  0.10271675  0.04848066  1
  O  O37  1  0.44294256  0.67270797  0.08073798  1
  O  O38  1  0.60066122  0.44549471  0.86166966  1
  Na  Na39  1  0.04397036  0.72908354  0.25501850  1
  Cl  Cl40  1  0.72348034  0.88877058  0.55626446  1
  Na  Na41  1  0.73004466  0.39275056  0.56339836  1
  O  O42  1  0.87090695  0.33234206  0.26585716  1
  N  N43  1  0.42849669  0.57239342  0.90617895  1
  Na  Na44  1  0.41463169  0.04838962  0.86672908  1
  N  N45  1  0.18626140  0.94158518  0.10996796  1
  S  S46  1  0.44104007  0.56137925  0.64442998  1
  La  La47  1  0.70657879  0.95639306  0.74443132  1
  S  S48  1  0.32765439  0.96922463  0.47879422  1
  S  S49  1  0.73023874  0.33963975  0.01475912  1
  N  N50  1  0.08229058  0.34603405  0.32195383  1
  S  S51  1  0.78830981  0.72601056  0.41741186  1
  S  S52  1  0.89987028  0.29084870  0.60190505  1
  N  N53  1  0.26627702  0.45349088  0.10188784  1
  La  La54  1  0.29483262  0.29351571  0.80949235  1
  Sc  Sc55  1  0.98290491  0.02464139  0.31817812  1
  P  P56  1  0.06002787  0.38389426  0.15232843  1
  C  C57  1  0.12934346  0.92023611  0.95510137  1
  La  La58  1  0.52121860  0.29849955  0.31306976  1
  S  S59  1  0.65944189  0.91165638  0.09642643  1
  Sc  Sc60  1  0.10344027  0.63345814  0.55762076  1
  Zn  Zn61  1  0.36773705  0.77085555  0.18476482  1
  N  N62  1  0.07366749  0.89863563  0.79783005  1
