# generated using pymatgen
data_CsK9Na2Sr2LiLaTh2TaMnNb2ZnSi2NiW2SO41F
_symmetry_space_group_name_H-M   'P 1'
_cell_length_a   4.15510988
_cell_length_b   7.13186741
_cell_length_c   9.11912632
_cell_angle_alpha   106.39878082
_cell_angle_beta   105.92355347
_cell_angle_gamma   89.44393921
_symmetry_Int_Tables_number   1
_chemical_formula_structural   CsK9Na2Sr2LiLaTh2TaMnNb2ZnSi2NiW2SO41F
_chemical_formula_sum
'Cs1 K9 Na2 Sr2 Li1 La1 Th2 Ta1 Mn1 Nb2 Zn1 Si2 Ni1 W2 S1 O41 F1'
_cell_volume   248.61965617
_cell_formula_units_Z   1
loop_
 _symmetry_equiv_pos_site_id
 _symmetry_equiv_pos_as_xyz
  1  'x, y, z'
loop_
 _atom_site_type_symbol
 _atom_site_label
 _atom_site_symmetry_multiplicity
 _atom_site_fract_x
 _atom_site_fract_y
 _atom_site_fract_z
 _atom_site_occupancy
  Sr  Sr0  1  0.14054982  0.26803195  0.04619468  1
  O  O1  1  0.62867117  0.06540456  0.02908614  1
  K  K2  1  0.79484302  0.09897418  0.37900597  1
  K  K3  1  0.13045546  0.77277905  0.04491067  1
  K  K4  1  0.46587658  0.43368310  0.71949005  1
  O  O5  1  0.30857971  0.79550660  0.39544567  1
  La  La6  1  0.79955375  0.60479814  0.38077235  1
  O  O7  1  0.28750521  0.40058070  0.36580658  1
  O  O8  1  0.64611447  0.47608629  0.07895982  1
  O  O9  1  0.94822413  0.73459750  0.68341219  1
  Sr  Sr10  1  0.46403569  0.93606621  0.71357560  1
  O  O11  1  0.98645061  0.13383937  0.72892487  1
  Nb  Nb12  1  0.68558431  0.17952825  0.12852038  1
  Li  Li13  1  0.13903585  0.98850602  0.33931783  1
  O  O14  1  0.25093073  0.61595994  0.88543743  1
  Ta  Ta15  1  0.72223139  0.60329962  0.33386084  1
  Zn  Zn16  1  0.21827164  0.46165779  0.56451082  1
  O  O17  1  0.15741791  0.26611137  0.73772955  1
  O  O18  1  0.91266066  0.30023891  0.28196749  1
  Cs  Cs19  1  0.71236926  0.88764322  0.73076713  1
  O  O20  1  0.89812350  0.30273384  0.97301263  1
  O  O21  1  0.40529689  0.11392930  0.99448150  1
  Si  Si22  1  0.17893012  0.34267977  0.88842452  1
  O  O23  1  0.91883492  0.84454167  0.16422081  1
  Mn  Mn24  1  0.27571231  0.76233429  0.07165089  1
  O  O25  1  0.49499500  0.91795260  0.27971992  1
  O  O26  1  0.98040497  0.70440048  0.44595200  1
  O  O27  1  0.50335318  0.47994307  0.18175179  1
  O  O28  1  0.55316138  0.47990334  0.50110465  1
  O  O29  1  0.67374092  0.95398039  0.45610809  1
  O  O30  1  0.43788686  0.72444874  0.66737896  1
  K  K31  1  0.17644270  0.95569646  0.41916570  1
  O  O32  1  0.39636678  0.23324056  0.16494046  1
  W  W33  1  0.16792831  0.45488077  0.16961420  1
  K  K34  1  0.67097247  0.45338377  0.41842127  1
  O  O35  1  0.44100103  0.18643241  0.67077196  1
  O  O36  1  0.94195795  0.68397146  0.16607779  1
  O  O37  1  0.94277263  0.22954494  0.16749325  1
  O  O38  1  0.90368623  0.72190583  0.66928434  1
  O  O39  1  0.40907857  0.68599039  0.16983402  1
  Na  Na40  1  0.67328215  0.95782024  0.16820276  1
  K  K41  1  0.66382885  0.45361486  0.91995949  1
  K  K42  1  0.17312630  0.96012974  0.91967762  1
  O  O43  1  0.67083412  0.95541692  0.88585228  1
  Na  Na44  1  0.16797483  0.45059007  0.66979700  1
  O  O45  1  0.17096882  0.45377219  0.38385084  1
  W  W46  1  0.66778618  0.95240021  0.67310202  1
  O  O47  1  0.16771361  0.45174521  0.95436436  1
  O  O48  1  0.90148783  0.18253925  0.67129409  1
  O  O49  1  0.40531814  0.86180496  0.32105130  1
  Ni  Ni50  1  0.70768011  0.60348517  0.36996019  1
  Nb  Nb51  1  0.48834398  0.05434923  0.49869904  1
  O  O52  1  0.54757452  0.73376876  0.75461918  1
  O  O53  1  0.46026903  0.36999676  0.22193569  1
  Th  Th54  1  0.20746148  0.74314463  0.11941037  1
  O  O55  1  0.81993806  0.00111353  0.23362857  1
  O  O56  1  0.98984426  0.55910742  0.50526202  1
  Th  Th57  1  0.80831164  0.34556958  0.88477314  1
  O  O58  1  0.63308668  0.25693464  0.62417048  1
  O  O59  1  0.17510536  0.08089299  0.75067270  1
  O  O60  1  0.93730909  0.55470616  0.05890298  1
  O  O61  1  0.14113635  0.13410415  0.03671084  1
  K  K62  1  0.40388313  0.46016401  0.29905882  1
  S  S63  1  0.40115774  0.09566648  0.91420710  1
  K  K64  1  0.91689152  0.61846471  0.77625108  1
  O  O65  1  0.62065834  0.11389168  0.07864060  1
  O  O66  1  0.42178568  0.32681730  0.72943228  1
  O  O67  1  0.91224134  0.69347864  0.27385652  1
  O  O68  1  0.41590112  0.85185432  0.86384720  1
  Si  Si69  1  0.89650393  0.98028320  0.21165341  1
  F  F70  1  0.91585749  0.09705485  0.43192342  1
