# generated using pymatgen
data_K3Rb2Na3SrLi4Yb3NdHfMgTi3MnFe4CuAgSbO25F18
_symmetry_space_group_name_H-M   'P 1'
_cell_length_a   4.87255812
_cell_length_b   6.16130209
_cell_length_c   8.69777489
_cell_angle_alpha   82.62377167
_cell_angle_beta   85.96931458
_cell_angle_gamma   85.10387421
_symmetry_Int_Tables_number   1
_chemical_formula_structural
K3Rb2Na3SrLi4Yb3NdHfMgTi3MnFe4CuAgSbO25F18
_chemical_formula_sum
'Rb2 K3 Na3 Sr1 Li4 Yb3 Nd1 Hf1 Mg1 Ti3 Mn1 Fe4 Cu1 Ag1 Sb1 O25 F18'
_cell_volume   257.54715254
_cell_formula_units_Z   1
loop_
 _symmetry_equiv_pos_site_id
 _symmetry_equiv_pos_as_xyz
  1  'x, y, z'
loop_
 _atom_site_type_symbol
 _atom_site_label
 _atom_site_symmetry_multiplicity
 _atom_site_fract_x
 _atom_site_fract_y
 _atom_site_fract_z
 _atom_site_occupancy
  O  O0  1  0.06855448  0.55662417  0.10450719  1
  O  O1  1  0.41218975  0.45213389  0.70285308  1
  Li  Li2  1  0.86635590  0.27133694  0.19800149  1
  O  O3  1  0.48446813  0.35217017  0.27474037  1
  O  O4  1  0.18206957  0.98844868  0.14453530  1
  O  O5  1  0.66002697  0.86671001  0.23832576  1
  O  O6  1  0.56517982  0.71974987  0.96182513  1
  Ti  Ti7  1  0.88116419  0.87944359  0.01777056  1
  Na  Na8  1  0.32520685  0.27744767  0.95395392  1
  Mn  Mn9  1  0.41100934  0.74616224  0.74315768  1
  Ti  Ti10  1  0.35738534  0.04178470  0.36092269  1
  Na  Na11  1  0.81925023  0.20353884  0.68599802  1
  O  O12  1  0.22439167  0.73803407  0.39827111  1
  Ti  Ti13  1  0.35687017  0.65811455  0.18597755  1
  O  O14  1  0.78804493  0.16337316  0.96818089  1
  Li  Li15  1  0.88285780  0.89924896  0.42315453  1
  O  O16  1  0.06643736  0.18936044  0.44456959  1
  Li  Li17  1  0.27715665  0.43915677  0.50492746  1
  O  O18  1  0.54407287  0.95820540  0.56897259  1
  O  O19  1  0.07235661  0.84161830  0.80916268  1
  O  O20  1  0.14774466  0.22582382  0.92144501  1
  O  O21  1  0.01476501  0.72392029  0.79716015  1
  Yb  Yb22  1  0.95535976  0.54169917  0.60931259  1
  Sb  Sb23  1  0.95396554  0.04045561  0.11165226  1
  O  O24  1  0.63520676  0.62318134  0.15707392  1
  Fe  Fe25  1  0.95630902  0.53911531  0.11302507  1
  Yb  Yb26  1  0.45424485  0.03981784  0.10930732  1
  O  O27  1  0.13812380  0.85922235  0.29784593  1
  O  O28  1  0.76356095  0.85483563  0.29583085  1
  Fe  Fe29  1  0.45326862  0.54060161  0.10547823  1
  O  O30  1  0.27314159  0.46049967  0.05903593  1
  O  O31  1  0.38560355  0.36586699  0.42539096  1
  Yb  Yb32  1  0.45531252  0.54064900  0.61287606  1
  O  O33  1  0.26481399  0.00257236  0.52496219  1
  Fe  Fe34  1  0.95499218  0.04241480  0.60689813  1
  O  O35  1  0.52551812  0.72094190  0.79277176  1
  O  O36  1  0.88660914  0.36550555  0.42591178  1
  Fe  Fe37  1  0.45406252  0.04470824  0.60869884  1
  O  O38  1  0.64287126  0.08576456  0.69171274  1
  O  O39  1  0.77298194  0.22277904  0.91822189  1
  F  F40  1  0.26296836  0.12373146  0.69142002  1
  Sr  Sr41  1  0.02144122  0.36579528  0.45798120  1
  Rb  Rb42  1  0.26799804  0.61750406  0.70961946  1
  F  F43  1  0.25951895  0.60244918  0.21653634  1
  K  K44  1  0.51877314  0.86717737  0.95635283  1
  Rb  Rb45  1  0.77679527  0.11466614  0.20108035  1
  F  F46  1  0.78140157  0.12534660  0.69470048  1
  F  F47  1  0.78852957  0.60191578  0.69243729  1
  F  F48  1  0.78166008  0.60665870  0.21517354  1
  F  F49  1  0.26515022  0.12379590  0.21671654  1
  Ag  Ag50  1  0.61745161  0.83394265  0.38985896  1
  O  O51  1  0.10269751  0.35845053  0.78271759  1
  F  F52  1  0.37811989  0.71281785  0.23344576  1
  Nd  Nd53  1  0.73372918  0.45582783  0.05445236  1
  Mg  Mg54  1  0.24619807  0.99814367  0.95848513  1
  O  O55  1  0.49782327  0.76730877  0.79881930  1
  F  F56  1  0.96850777  0.05945663  0.22740871  1
  Cu  Cu57  1  0.29752582  0.55504107  0.80622065  1
  F  F58  1  0.96985859  0.80822849  0.93080288  1
  Li  Li59  1  0.18347004  0.45326841  0.46553931  1
  F  F60  1  0.86566716  0.46453306  0.37119871  1
  F  F61  1  0.53918076  0.20827897  0.93263793  1
  F  F62  1  0.43154487  0.22689928  0.37929460  1
  Na  Na63  1  0.79881889  0.07546251  0.62085581  1
  F  F64  1  0.52202541  0.41912371  0.92550009  1
  K  K65  1  0.49735996  0.46745250  0.43276280  1
  F  F66  1  0.95950508  0.41378826  0.36044890  1
  F  F67  1  0.48259380  0.95046061  0.92923462  1
  Hf  Hf68  1  0.74124902  0.20458256  0.92602885  1
  F  F69  1  0.95448995  0.98869210  0.93239248  1
  K  K70  1  0.98615110  0.95391363  0.43347603  1
  F  F71  1  0.00423878  0.46791881  0.93556386  1
  F  F72  1  0.52001280  0.99120289  0.49608073  1
