# generated using pymatgen
data_CsRbNa2LiLaMgSc2U2Be2Al2Zn3CdInGe2BSbAsP2RuCSe4S22(N3O)2
_symmetry_space_group_name_H-M   'P 1'
_cell_length_a   5.14198351
_cell_length_b   6.12207842
_cell_length_c   6.60817671
_cell_angle_alpha   84.47502899
_cell_angle_beta   82.72527313
_cell_angle_gamma   85.29515076
_symmetry_Int_Tables_number   1
_chemical_formula_structural
CsRbNa2LiLaMgSc2U2Be2Al2Zn3CdInGe2BSbAsP2RuCSe4S22(N3O)2
_chemical_formula_sum
;
Cs1 Rb1 Na2 Li1 La1 Mg1 Sc2 U2 Be2 Al2 Zn3 Cd1 In1 Ge2 B1 Sb1 As1 P2
Ru1 Se4 C1 S22 N6 O2
;
_cell_volume   204.87545568
_cell_formula_units_Z   1
loop_
 _symmetry_equiv_pos_site_id
 _symmetry_equiv_pos_as_xyz
  1  'x, y, z'
loop_
 _atom_site_type_symbol
 _atom_site_label
 _atom_site_symmetry_multiplicity
 _atom_site_fract_x
 _atom_site_fract_y
 _atom_site_fract_z
 _atom_site_occupancy
  In  In0  1  0.73385000  0.54710740  0.11441925  1
  Ge  Ge1  1  0.24214444  0.04665579  0.11286397  1
  Se  Se2  1  0.02053385  0.31055617  0.86028147  1
  Se  Se3  1  0.43911198  0.30510116  0.37178078  1
  Se  Se4  1  0.02347613  0.78468108  0.37793246  1
  Se  Se5  1  0.44364688  0.78425914  0.85595018  1
  Cd  Cd6  1  0.73559982  0.04830743  0.61691731  1
  S  S7  1  0.71144605  0.19818088  0.05706172  1
  S  S8  1  0.30097559  0.74361366  0.87361568  1
  Zn  Zn9  1  0.59484512  0.81994033  0.25816250  1
  S  S10  1  0.50774962  0.99283266  0.45756829  1
  Zn  Zn11  1  0.79715973  0.01024448  0.85883713  1
  Zn  Zn12  1  0.40129745  0.61032802  0.65391618  1
  S  S13  1  0.10102107  0.54936248  0.25604218  1
  Be  Be14  1  0.00085151  0.21271631  0.45458496  1
  Be  Be15  1  0.19471237  0.40817997  0.06076115  1
  S  S16  1  0.91728634  0.35739088  0.63746011  1
  Mg  Mg17  1  0.73030746  0.73198432  0.65484381  1
  S  S18  1  0.74450213  0.58388293  0.85812968  1
  S  S19  1  0.27436340  0.47851339  0.07934861  1
  Na  Na20  1  0.69604778  0.19985922  0.64242899  1
  S  S21  1  0.25426242  0.87647617  0.16641122  1
  U  U22  1  0.23074155  0.68845254  0.38433242  1
  S  S23  1  0.81618750  0.05422401  0.92966592  1
  S  S24  1  0.69262058  0.85603595  0.45632932  1
  Rb  Rb25  1  0.71980637  0.17088519  0.25182998  1
  S  S26  1  0.75682640  0.56613034  0.28377956  1
  Sb  Sb27  1  0.27909622  0.37496713  0.90452039  1
  As  As28  1  0.24377562  0.89894623  0.88717508  1
  U  U29  1  0.76713729  0.72067994  0.06876510  1
  S  S30  1  0.19532774  0.90966892  0.69783247  1
  S  S31  1  0.20504312  0.36094144  0.50244236  1
  S  S32  1  0.27155963  0.53238237  0.60817248  1
  Na  Na33  1  0.71999180  0.25244138  0.39252153  1
  O  O34  1  0.92821246  0.15163495  0.12353643  1
  N  N35  1  0.50141656  0.57724690  0.60828847  1
  Cs  Cs36  1  0.49079910  0.46914935  0.96916783  1
  Ru  Ru37  1  0.83255601  0.81589687  0.65275300  1
  N  N38  1  0.09273127  0.89528227  0.89684403  1
  B  B39  1  0.27485368  0.64224112  0.55853772  1
  N  N40  1  0.02395712  0.67868274  0.48189059  1
  Li  Li41  1  0.28245187  0.91854590  0.44347268  1
  N  N42  1  0.07463948  0.99745536  0.07199795  1
  N  N43  1  0.71643907  0.05722525  0.60930598  1
  O  O44  1  0.23458654  0.94464713  0.21008128  1
  N  N45  1  0.27842286  0.47584230  0.44644070  1
  S  S46  1  0.32225445  0.99949658  0.50996017  1
  Al  Al47  1  0.82579249  0.35785443  0.58106232  1
  P  P48  1  0.52649057  0.30923730  0.71715158  1
  S  S49  1  0.92644107  0.22956699  0.02718452  1
  Ge  Ge50  1  0.12111543  0.53474402  0.98736650  1
  C  C51  1  0.12210957  0.54305220  0.74285078  1
  S  S52  1  0.44365132  0.66196018  0.14262557  1
  Al  Al53  1  0.51729339  0.73987067  0.44781148  1
  Sc  Sc54  1  0.63439029  0.40533686  0.08330807  1
  P  P55  1  0.34569380  0.52288187  0.64527643  1
  La  La56  1  0.05617483  0.90595919  0.75604880  1
  S  S57  1  0.83271176  0.04946584  0.46312118  1
  S  S58  1  0.79611617  0.56271207  0.41679198  1
  S  S59  1  0.37606943  0.10538500  0.07310533  1
  S  S60  1  0.93998379  0.74447370  0.07673734  1
  Sc  Sc61  1  0.13927151  0.14632419  0.28439349  1
  S  S62  1  0.58720702  0.80431664  0.74640042  1
