# generated using pymatgen
data_CsK10NaSr2CaLaNpUNb2CrFeSi3BiW2O41F2
_symmetry_space_group_name_H-M   'P 1'
_cell_length_a   4.15510988
_cell_length_b   7.13186741
_cell_length_c   9.11912632
_cell_angle_alpha   106.39878082
_cell_angle_beta   105.92355347
_cell_angle_gamma   89.44393921
_symmetry_Int_Tables_number   1
_chemical_formula_structural   CsK10NaSr2CaLaNpUNb2CrFeSi3BiW2O41F2
_chemical_formula_sum
'Cs1 K10 Na1 Sr2 Ca1 La1 Np1 U1 Nb2 Cr1 Fe1 Si3 Bi1 W2 O41 F2'
_cell_volume   248.61965617
_cell_formula_units_Z   1
loop_
 _symmetry_equiv_pos_site_id
 _symmetry_equiv_pos_as_xyz
  1  'x, y, z'
loop_
 _atom_site_type_symbol
 _atom_site_label
 _atom_site_symmetry_multiplicity
 _atom_site_fract_x
 _atom_site_fract_y
 _atom_site_fract_z
 _atom_site_occupancy
  K  K0  1  0.85396957  0.50820071  0.43231961  1
  Sr  Sr1  1  0.02138536  0.00927107  0.76442575  1
  K  K2  1  0.52125919  0.51312745  0.76282722  1
  O  O3  1  0.42815253  0.82294470  0.58379906  1
  O  O4  1  0.91743684  0.20124014  0.57400143  1
  O  O5  1  0.78311199  0.81659347  0.28348190  1
  O  O6  1  0.28067023  0.19323617  0.27830213  1
  Sr  Sr7  1  0.68459034  0.00265648  0.09572066  1
  O  O8  1  0.10868368  0.80184954  0.93941772  1
  La  La9  1  0.36030117  0.00957039  0.43105030  1
  K  K10  1  0.18611729  0.50136435  0.09925100  1
  O  O11  1  0.59262818  0.21013115  0.92748493  1
  O  O12  1  0.35345766  0.31771657  0.80991131  1
  O  O13  1  0.78559065  0.30331892  0.18031749  1
  O  O14  1  0.61790246  0.77103889  0.33948994  1
  Si  Si15  1  0.52341425  0.02202559  0.42907813  1
  Nb  Nb16  1  0.47448313  0.58965170  0.19321376  1
  Si  Si17  1  0.16120721  0.38064817  0.91153812  1
  O  O18  1  0.95000213  0.59817660  0.83688146  1
  O  O19  1  0.02101017  0.12441002  0.97016639  1
  K  K20  1  0.53204900  0.84292334  0.80022770  1
  O  O21  1  0.72370428  0.08647216  0.51598918  1
  O  O22  1  0.30570084  0.48468089  0.04149073  1
  O  O23  1  0.65844834  0.86224926  0.08524743  1
  O  O24  1  0.37100938  0.92609757  0.52913058  1
  O  O25  1  0.14228998  0.84850931  0.20771565  1
  Si  Si26  1  0.89693356  0.03435140  0.11497981  1
  Cs  Cs27  1  0.04732849  0.50054461  0.54205674  1
  O  O28  1  0.38405985  0.30899185  0.32654080  1
  K  K29  1  0.10620936  0.71238828  0.18374252  1
  O  O30  1  0.60102433  0.70494467  0.22932512  1
  O  O31  1  0.32617864  0.98733407  0.94472289  1
  Bi  Bi32  1  0.10276943  0.21519180  0.44052321  1
  Nb  Nb33  1  0.59805983  0.71654487  0.43750075  1
  Np  Np34  1  0.10176131  0.21385916  0.94340432  1
  O  O35  1  0.35581252  0.95533061  0.44060487  1
  O  O36  1  0.84614027  0.95695174  0.43883801  1
  O  O37  1  0.09773975  0.20711370  0.20118162  1
  O  O38  1  0.84451914  0.46836567  0.43684632  1
  K  K39  1  0.59717125  0.21220310  0.69371533  1
  K  K40  1  0.60510844  0.21045397  0.19001819  1
  K  K41  1  0.10519212  0.71588957  0.69885945  1
  O  O42  1  0.32253027  0.44042557  0.94245028  1
  Na  Na43  1  0.60143059  0.71710145  0.93931520  1
  O  O44  1  0.88151813  0.98801762  0.93785870  1
  O  O45  1  0.88170755  0.43689868  0.94443583  1
  O  O46  1  0.10593694  0.21912901  0.68000156  1
  O  O47  1  0.60119557  0.71308100  0.64683127  1
  O  O48  1  0.36144018  0.47155201  0.43953651  1
  O  O49  1  0.26634368  0.53489578  0.61678618  1
  W  W50  1  0.47707087  0.48278925  0.31133533  1
  O  O51  1  0.68683618  0.70179188  0.44316900  1
  U  U52  1  0.36164245  0.77191341  0.77874255  1
  O  O53  1  0.77633935  0.23028523  0.35223347  1
  O  O54  1  0.61469942  0.36890525  0.96128702  1
  O  O55  1  0.38936561  0.11153499  0.44734782  1
  O  O56  1  0.20359406  0.55188662  0.18202806  1
  O  O57  1  0.53415197  0.83822745  0.06550711  1
  O  O58  1  0.97765231  0.00008893  0.93878591  1
  W  W59  1  0.70014340  0.03804784  0.17647004  1
  Ca  Ca60  1  0.95893979  0.36541408  0.57844859  1
  F  F61  1  0.82269204  0.20142263  0.58006930  1
  O  O62  1  0.18663740  0.52622795  0.89852870  1
  K  K63  1  0.33287281  0.49046606  0.40125200  1
  O  O64  1  0.73750120  0.29042205  0.10868199  1
  Fe  Fe65  1  0.84173548  0.98022532  0.37134030  1
  O  O66  1  0.72579622  0.71450794  0.65733850  1
  K  K67  1  0.34522951  0.02634835  0.87621319  1
  O  O68  1  0.81661999  0.77471000  0.13862440  1
  Cr  Cr69  1  0.86706614  0.56821615  0.94751513  1
  F  F70  1  0.22235920  0.99289447  0.37623173  1
