# generated using pymatgen
data_K4Rb2Na5SrLi6TbUTi3MnFeCu2Si2SbO21F22
_symmetry_space_group_name_H-M   'P 1'
_cell_length_a   4.87255812
_cell_length_b   6.16130209
_cell_length_c   8.69777489
_cell_angle_alpha   82.62377167
_cell_angle_beta   85.96931458
_cell_angle_gamma   85.10387421
_symmetry_Int_Tables_number   1
_chemical_formula_structural   K4Rb2Na5SrLi6TbUTi3MnFeCu2Si2SbO21F22
_chemical_formula_sum
'K4 Rb2 Na5 Sr1 Li6 Tb1 U1 Ti3 Mn1 Fe1 Si2 Cu2 Sb1 O21 F22'
_cell_volume   257.54715254
_cell_formula_units_Z   1
loop_
 _symmetry_equiv_pos_site_id
 _symmetry_equiv_pos_as_xyz
  1  'x, y, z'
loop_
 _atom_site_type_symbol
 _atom_site_label
 _atom_site_symmetry_multiplicity
 _atom_site_fract_x
 _atom_site_fract_y
 _atom_site_fract_z
 _atom_site_occupancy
  Ti  Ti0  1  0.78077602  0.53668821  0.34458286  1
  Ti  Ti1  1  0.38386700  0.33312097  0.07110339  1
  Mn  Mn2  1  0.89529115  0.49055693  0.90846944  1
  O  O3  1  0.30527633  0.94526482  0.61186624  1
  Na  Na4  1  0.32214293  0.85365379  0.07715880  1
  Ti  Ti5  1  0.40898547  0.66844028  0.72013414  1
  O  O6  1  0.46286258  0.09002005  0.22788775  1
  F  F7  1  0.12736109  0.42334339  0.68664765  1
  Li  Li8  1  0.26216128  0.30143550  0.50971895  1
  Li  Li9  1  0.85300565  0.08475862  0.24900553  1
  O  O10  1  0.06062486  0.23569873  0.04381126  1
  O  O11  1  0.51756996  0.57991725  0.49756911  1
  O  O12  1  0.92236847  0.27239227  0.40935975  1
  O  O13  1  0.20316486  0.63008356  0.92165697  1
  O  O14  1  0.70208222  0.74207056  0.80172455  1
  Li  Li15  1  0.28948653  0.85994524  0.40788794  1
  Na  Na16  1  0.77821237  0.09935289  0.68260872  1
  O  O17  1  0.00260897  0.76845062  0.30103216  1
  O  O18  1  0.60485208  0.33130461  0.87786222  1
  O  O19  1  0.59896988  0.52757430  0.16140126  1
  Na  Na20  1  0.24401070  0.73878843  0.73182929  1
  Fe  Fe21  1  0.71827334  0.67396641  0.22892028  1
  O  O22  1  0.51640958  0.50965160  0.39200312  1
  F  F23  1  0.85578287  0.88092822  0.02579010  1
  K  K24  1  0.74354458  0.24848825  0.70194900  1
  O  O25  1  0.66843498  0.02378533  0.56123865  1
  Sb  Sb26  1  0.34493327  0.69411623  0.19383156  1
  Si  Si27  1  0.77494651  0.77428883  0.62468350  1
  O  O28  1  0.97234732  0.38360611  0.23999387  1
  F  F29  1  0.30505335  0.32713741  0.89563197  1
  F  F30  1  0.18682438  0.15829162  0.53040361  1
  Li  Li31  1  0.33783227  0.15501347  0.71113157  1
  O  O32  1  0.68268895  0.67824566  0.53138793  1
  Si  Si33  1  0.24626917  0.24332319  0.21488535  1
  O  O34  1  0.40391076  0.94929397  0.21698827  1
  O  O35  1  0.06433015  0.70014560  0.50381339  1
  O  O36  1  0.21871237  0.91781276  0.98606098  1
  O  O37  1  0.68409520  0.65589762  0.93575388  1
  Na  Na38  1  0.81033701  0.18682967  0.17219245  1
  O  O39  1  0.39156631  0.40524083  0.15505165  1
  F  F40  1  0.82988596  0.57479054  0.85401160  1
  F  F41  1  0.34496567  0.57587361  0.85206527  1
  Rb  Rb42  1  0.33624989  0.55760580  0.37150663  1
  Rb  Rb43  1  0.83884692  0.06014787  0.86887759  1
  F  F44  1  0.35437229  0.05298010  0.37245142  1
  F  F45  1  0.82818711  0.05753722  0.37358093  1
  F  F46  1  0.34974408  0.05311471  0.85232079  1
  K  K47  1  0.08576015  0.31506246  0.11499122  1
  Sr  Sr48  1  0.58711272  0.81394035  0.61588556  1
  F  F49  1  0.82876235  0.57413423  0.37491226  1
  F  F50  1  0.36252967  0.78863829  0.48130399  1
  O  O51  1  0.47651890  0.25506207  0.97211814  1
  O  O52  1  0.79147208  0.60902870  0.15879729  1
  Tb  Tb53  1  0.58451438  0.42332476  0.57221746  1
  F  F54  1  0.90677392  0.03537331  0.14905652  1
  Li  Li55  1  0.15964453  0.18186314  0.27155912  1
  Na  Na56  1  0.07812415  0.81139201  0.78744102  1
  Li  Li57  1  0.09737732  0.69971234  0.30281940  1
  F  F58  1  0.35362965  0.80435717  0.01575240  1
  F  F59  1  0.30730984  0.35823795  0.41300464  1
  F  F60  1  0.85036445  0.11582487  0.54731268  1
  F  F61  1  0.89083058  0.58980656  0.61801720  1
  Cu  Cu62  1  0.65432101  0.43233091  0.04908311  1
  Cu  Cu63  1  0.62983608  0.92750311  0.07667238  1
  K  K64  1  0.90171617  0.28680995  0.36497742  1
  F  F65  1  0.89115524  0.30746156  0.86802244  1
  K  K66  1  0.95927685  0.82560098  0.82340014  1
  F  F67  1  0.44534093  0.80497783  0.78237575  1
  F  F68  1  0.38885012  0.28594795  0.86873794  1
  F  F69  1  0.47317356  0.83142948  0.31262022  1
  F  F70  1  0.97535038  0.80534840  0.32134393  1
  F  F71  1  0.41313291  0.30989024  0.38944963  1
  U  U72  1  0.43054447  0.05907262  0.59144759  1
