# generated using pymatgen
data_K5NaSrLi4Tm2MgTi2VCrCuH2WCl5O17F8
_symmetry_space_group_name_H-M   'P 1'
_cell_length_a   5.98933172
_cell_length_b   6.34596920
_cell_length_c   7.88683271
_cell_angle_alpha   82.46167755
_cell_angle_beta   93.14611816
_cell_angle_gamma   90.42332458
_symmetry_Int_Tables_number   1
_chemical_formula_structural   K5NaSrLi4Tm2MgTi2VCrCuH2WCl5O17F8
_chemical_formula_sum
'K5 Na1 Sr1 Li4 Tm2 Mg1 Ti2 V1 Cr1 Cu1 H2 W1 Cl5 O17 F8'
_cell_volume   296.72498676
_cell_formula_units_Z   1
loop_
 _symmetry_equiv_pos_site_id
 _symmetry_equiv_pos_as_xyz
  1  'x, y, z'
loop_
 _atom_site_type_symbol
 _atom_site_label
 _atom_site_symmetry_multiplicity
 _atom_site_fract_x
 _atom_site_fract_y
 _atom_site_fract_z
 _atom_site_occupancy
  Tm  Tm0  1  0.55439001  0.89721042  0.30613452  1
  K  K1  1  0.02350305  0.88758677  0.51441795  1
  Ti  Ti2  1  0.96292084  0.88435245  0.08122514  1
  O  O3  1  0.51814157  0.14863189  0.48510364  1
  O  O4  1  0.76437205  0.65386230  0.16521628  1
  K  K5  1  0.85780621  0.38610703  0.82805079  1
  Ti  Ti6  1  0.36099786  0.38349676  0.57790726  1
  K  K7  1  0.46164066  0.86683774  0.82366991  1
  O  O8  1  0.36173552  0.37260500  0.81158322  1
  O  O9  1  0.07552173  0.39178741  0.48909912  1
  Li  Li10  1  0.79581439  0.38097513  0.34034568  1
  O  O11  1  0.80702817  0.11566403  0.17261726  1
  O  O12  1  0.53609812  0.62992001  0.51400971  1
  O  O13  1  0.25768557  0.87827873  0.16761208  1
  O  O14  1  0.95840871  0.88908994  0.85369229  1
  K  K15  1  0.29345378  0.39068443  0.14954799  1
  O  O16  1  0.88666564  0.41900057  0.72841144  1
  Sr  Sr17  1  0.88849789  0.91568708  0.22202478  1
  Mg  Mg18  1  0.39214998  0.41038612  0.73218542  1
  O  O19  1  0.38600573  0.92209578  0.72651470  1
  O  O20  1  0.38824719  0.41919801  0.22187459  1
  O  O21  1  0.18484625  0.31106418  0.73542631  1
  Cu  Cu22  1  0.74286050  0.93610209  0.36493379  1
  H  H23  1  0.20295738  0.68474942  0.10712458  1
  O  O24  1  0.17615622  0.80060565  0.24831823  1
  Li  Li25  1  0.84755534  0.25037190  0.63682872  1
  F  F26  1  0.59825677  0.08903168  0.02273437  1
  Cr  Cr27  1  0.21225286  0.18637443  0.10891804  1
  O  O28  1  0.90813202  0.24432597  0.24354911  1
  Na  Na29  1  0.66581148  0.61407626  0.05134112  1
  O  O30  1  0.59767294  0.61243474  0.50021398  1
  H  H31  1  0.26799884  0.17260598  0.61242437  1
  V  V32  1  0.28347734  0.67129374  0.60083097  1
  F  F33  1  0.89674002  0.81608206  0.69078690  1
  O  O34  1  0.31829053  0.04236344  0.48974967  1
  O  O35  1  0.28729814  0.57222128  0.97585702  1
  Li  Li36  1  0.40027994  0.19748785  0.69591147  1
  Tm  Tm37  1  0.00768699  0.99752349  0.47623274  1
  Cl  Cl38  1  0.62260997  0.28517693  0.30380121  1
  Cl  Cl39  1  0.00901626  0.47626567  0.51693302  1
  Cl  Cl40  1  0.17809187  0.10337424  0.08088420  1
  Cl  Cl41  1  0.78775311  0.90869290  0.85405082  1
  Cl  Cl42  1  0.38528782  0.70420909  0.68515706  1
  Li  Li43  1  0.78328443  0.38852507  0.91198593  1
  F  F44  1  0.20077939  0.03637123  0.58915633  1
  F  F45  1  0.83445323  0.03965448  0.26677328  1
  K  K46  1  0.61526984  0.25636327  0.81423378  1
  F  F47  1  0.38866693  0.49090567  0.37325561  1
  F  F48  1  0.03469907  0.48680410  0.04788417  1
  F  F49  1  0.83856428  0.68184924  0.60082293  1
  W  W50  1  0.11348315  0.76297468  0.31369379  1
  F  F51  1  0.39531219  0.83825815  0.03546050  1
