# generated using pymatgen
data_Li2Y4HoMg3ZnFe3Co8CuSiAgB3RhCN7ClO23F6
_symmetry_space_group_name_H-M   'P 1'
_cell_length_a   5.77787256
_cell_length_b   5.78773308
_cell_length_c   6.32254696
_cell_angle_alpha   106.57270813
_cell_angle_beta   83.77281189
_cell_angle_gamma   88.57794189
_symmetry_Int_Tables_number   1
_chemical_formula_structural   Li2Y4HoMg3ZnFe3Co8CuSiAgB3RhCN7ClO23F6
_chemical_formula_sum
'Li2 Y4 Ho1 Mg3 Zn1 Fe3 Co8 Si1 Cu1 Ag1 B3 Rh1 C1 N7 Cl1 O23 F6'
_cell_volume   201.10685677
_cell_formula_units_Z   1
loop_
 _symmetry_equiv_pos_site_id
 _symmetry_equiv_pos_as_xyz
  1  'x, y, z'
loop_
 _atom_site_type_symbol
 _atom_site_label
 _atom_site_symmetry_multiplicity
 _atom_site_fract_x
 _atom_site_fract_y
 _atom_site_fract_z
 _atom_site_occupancy
  Mg  Mg0  1  0.21778348  0.51578814  0.04707926  1
  N  N1  1  0.11118657  0.26039723  0.72876251  1
  Y  Y2  1  0.47037002  0.04136802  0.18647780  1
  Y  Y3  1  0.22809060  0.51838946  0.56265163  1
  Rh  Rh4  1  0.94597703  0.03590478  0.43814230  1
  Mg  Mg5  1  0.76372808  0.51363605  0.30905539  1
  N  N6  1  0.35623646  0.78106523  0.87365812  1
  Ho  Ho7  1  0.72096616  0.53386962  0.81820285  1
  N  N8  1  0.59181941  0.28565636  0.00844021  1
  N  N9  1  0.09279314  0.26584074  0.25635269  1
  N  N10  1  0.61565590  0.26736715  0.50291127  1
  Y  Y11  1  0.98222119  0.01874911  0.93037105  1
  N  N12  1  0.85873693  0.77832985  0.14214562  1
  N  N13  1  0.84408730  0.78897405  0.60998237  1
  Mg  Mg14  1  0.48690966  0.04088414  0.70724458  1
  C  C15  1  0.16808388  0.94708312  0.41040480  1
  O  O16  1  0.90698195  0.42823675  0.66688901  1
  O  O17  1  0.37389964  0.40628794  0.17873940  1
  Fe  Fe18  1  0.48904738  0.92826146  0.69571090  1
  O  O19  1  0.72079223  0.88507903  0.89921063  1
  O  O20  1  0.44378379  0.95755017  0.43406010  1
  B  B21  1  0.99802542  0.88657194  0.91042805  1
  Fe  Fe22  1  0.10542942  0.44817406  0.40724537  1
  O  O23  1  0.15277247  0.71737391  0.97315192  1
  O  O24  1  0.49482435  0.29703054  0.77299255  1
  O  O25  1  0.12791242  0.05595750  0.85354173  1
  O  O26  1  0.85463363  0.39838439  0.14029686  1
  O  O27  1  0.04913352  0.11387511  0.35982376  1
  B  B28  1  0.61040080  0.41982588  0.16085625  1
  O  O29  1  0.46600550  0.57427740  0.58921874  1
  Fe  Fe30  1  0.13049318  0.39212701  0.92031646  1
  B  B31  1  0.61754966  0.43310204  0.67609590  1
  O  O32  1  0.01934480  0.77163869  0.43047628  1
  Cl  Cl33  1  0.35461676  0.94859493  0.25512826  1
  O  O34  1  0.80130106  0.35291877  0.52947539  1
  O  O35  1  0.79785216  0.35997513  0.97114122  1
  O  O36  1  0.28101504  0.48601174  0.74840063  1
  Si  Si37  1  0.95395148  0.51805252  0.74891859  1
  O  O38  1  0.90712863  0.85231477  0.75118738  1
  Y  Y39  1  0.46211419  0.02756501  0.74581093  1
  Zn  Zn40  1  0.90532345  0.17520460  0.25316101  1
  F  F41  1  0.66494638  0.35192838  0.69542253  1
  F  F42  1  0.07637922  0.08797700  0.43192557  1
  Li  Li43  1  0.44794375  0.02289075  0.45156872  1
  F  F44  1  0.65696537  0.76841217  0.28110558  1
  Cu  Cu45  1  0.82838750  0.41718471  0.33246464  1
  F  F46  1  0.07247427  0.52407670  0.01109725  1
  Li  Li47  1  0.44442123  0.53559256  0.94492912  1
  F  F48  1  0.57376671  0.31446064  0.23017642  1
  F  F49  1  0.46500120  0.86373627  0.78431034  1
  Ag  Ag50  1  0.84740341  0.93383253  0.85390484  1
  Co  Co51  1  0.97856772  0.67918426  0.91354805  1
  O  O52  1  0.48207211  0.17847373  0.41480872  1
  Co  Co53  1  0.47287118  0.43003988  0.66235113  1
  O  O54  1  0.47321427  0.67866039  0.91744184  1
  Co  Co55  1  0.97576624  0.67662632  0.41336155  1
  O  O56  1  0.98090643  0.92421663  0.66696340  1
  Co  Co57  1  0.47515577  0.42592210  0.16417985  1
  Co  Co58  1  0.47837722  0.92522186  0.16304077  1
  O  O59  1  0.48452628  0.67474979  0.41368261  1
  O  O60  1  0.97742093  0.42790812  0.16493307  1
  O  O61  1  0.97600842  0.42536736  0.66165149  1
  Co  Co62  1  0.97902876  0.17377603  0.91402566  1
  O  O63  1  0.97488439  0.92562944  0.16915080  1
  Co  Co64  1  0.98190373  0.17639424  0.41170579  1
  Co  Co65  1  0.47910887  0.92448407  0.66283208  1
  O  O66  1  0.47666273  0.17882556  0.91483480  1
