# generated using pymatgen
data_K5RbNaLi3TmMg2Ti2MnVPH3WCl5O13F12
_symmetry_space_group_name_H-M   'P 1'
_cell_length_a   5.98933172
_cell_length_b   6.34596920
_cell_length_c   7.88683271
_cell_angle_alpha   82.46167755
_cell_angle_beta   93.14611816
_cell_angle_gamma   90.42332458
_symmetry_Int_Tables_number   1
_chemical_formula_structural   K5RbNaLi3TmMg2Ti2MnVPH3WCl5O13F12
_chemical_formula_sum
'K5 Rb1 Na1 Li3 Tm1 Mg2 Ti2 Mn1 V1 P1 H3 W1 Cl5 O13 F12'
_cell_volume   296.72498676
_cell_formula_units_Z   1
loop_
 _symmetry_equiv_pos_site_id
 _symmetry_equiv_pos_as_xyz
  1  'x, y, z'
loop_
 _atom_site_type_symbol
 _atom_site_label
 _atom_site_symmetry_multiplicity
 _atom_site_fract_x
 _atom_site_fract_y
 _atom_site_fract_z
 _atom_site_occupancy
  K  K0  1  0.26428422  0.76684743  0.16201618  1
  O  O1  1  0.86717987  0.26755509  0.82440799  1
  O  O2  1  0.16146031  0.26841125  0.14180718  1
  O  O3  1  0.74636710  0.77988231  0.18267517  1
  O  O4  1  0.32462147  0.02707877  0.82250756  1
  Mg  Mg5  1  0.33844802  0.76873332  0.63998365  1
  K  K6  1  0.81893545  0.77386582  0.84525722  1
  Ti  Ti7  1  0.76054341  0.77114785  0.41004300  1
  O  O8  1  0.32679197  0.50432014  0.82211298  1
  Mn  Mn9  1  0.57394975  0.26210994  0.68005526  1
  O  O10  1  0.05211434  0.77211618  0.50201261  1
  K  K11  1  0.10106076  0.27212030  0.47543141  1
  O  O12  1  0.57614410  0.54113734  0.49604380  1
  K  K13  1  0.65639406  0.28344512  0.16334264  1
  O  O14  1  0.58121765  0.00563214  0.49922463  1
  Ti  Ti15  1  0.15737709  0.26653615  0.90823126  1
  F  F16  1  0.34254485  0.68929452  0.61903328  1
  F  F17  1  0.84471351  0.19383866  0.62087214  1
  Rb  Rb18  1  0.34466976  0.19082639  0.12274007  1
  F  F19  1  0.83555692  0.69347662  0.12518677  1
  Mg  Mg20  1  0.83888036  0.69213700  0.62157887  1
  H  H21  1  0.84233159  0.82700056  0.98905283  1
  F  F22  1  0.66529268  0.30999422  0.60342318  1
  H  H23  1  0.51203644  0.66978931  0.23479956  1
  Na  Na24  1  0.31635550  0.09796076  0.83852470  1
  H  H25  1  0.90935761  0.01061178  0.53985989  1
  O  O26  1  0.83930242  0.63254207  0.03887263  1
  O  O27  1  0.50538826  0.75713748  0.66025490  1
  V  V28  1  0.74200630  0.46596408  0.84004271  1
  O  O29  1  0.35532171  0.76864785  0.24578750  1
  P  P30  1  0.26763129  0.75212622  0.51739204  1
  Li  Li31  1  0.09825300  0.41102204  0.28117430  1
  O  O32  1  0.09411423  0.52759135  0.61501771  1
  O  O33  1  0.09752584  0.00922721  0.51039076  1
  F  F34  1  0.90515876  0.14187793  0.01221508  1
  F  F35  1  0.42918000  0.36320651  0.04826756  1
  Cl  Cl36  1  0.99496669  0.22806521  0.26903537  1
  Cl  Cl37  1  0.21013388  0.81427282  0.86660874  1
  Li  Li38  1  0.60365337  0.53799015  0.07335752  1
  Cl  Cl39  1  0.38491443  0.42907962  0.47915235  1
  Cl  Cl40  1  0.56580871  0.04536054  0.09538633  1
  Tm  Tm41  1  0.38973024  0.93267226  0.48044157  1
  Li  Li42  1  0.17949513  0.31980190  0.87745994  1
  Cl  Cl43  1  0.78469872  0.63454717  0.68222374  1
  F  F44  1  0.27963185  0.98126847  0.25028637  1
  F  F45  1  0.73366123  0.82435000  0.79336107  1
  F  F46  1  0.27403820  0.63899797  0.58694428  1
  W  W47  1  0.00548400  0.90546548  0.52081233  1
  F  F48  1  0.73667598  0.17774276  0.45482197  1
  F  F49  1  0.09584204  0.17672266  0.78345633  1
  K  K50  1  0.51167351  0.40970653  0.01761622  1
  F  F51  1  0.92784309  0.62813735  0.25002217  1
