# generated using pymatgen
data_CsK5RbLi3CaTmTi3CuAgP2H2WClO16F13
_symmetry_space_group_name_H-M   'P 1'
_cell_length_a   5.98933172
_cell_length_b   6.34596920
_cell_length_c   7.88683271
_cell_angle_alpha   82.46167755
_cell_angle_beta   93.14611816
_cell_angle_gamma   90.42332458
_symmetry_Int_Tables_number   1
_chemical_formula_structural   CsK5RbLi3CaTmTi3CuAgP2H2WClO16F13
_chemical_formula_sum
'Cs1 K5 Rb1 Li3 Ca1 Tm1 Ti3 Cu1 Ag1 P2 H2 W1 Cl1 O16 F13'
_cell_volume   296.72498676
_cell_formula_units_Z   1
loop_
 _symmetry_equiv_pos_site_id
 _symmetry_equiv_pos_as_xyz
  1  'x, y, z'
loop_
 _atom_site_type_symbol
 _atom_site_label
 _atom_site_symmetry_multiplicity
 _atom_site_fract_x
 _atom_site_fract_y
 _atom_site_fract_z
 _atom_site_occupancy
  O  O0  1  0.75113952  0.32277814  0.22919796  1
  Ag  Ag1  1  0.38605222  0.93175179  0.09639199  1
  K  K2  1  0.28211641  0.43949148  0.25772268  1
  Ti  Ti3  1  0.27431715  0.46389881  0.83399230  1
  O  O4  1  0.50750166  0.61613744  0.93598348  1
  O  O5  1  0.01071754  0.57311851  0.93522483  1
  K  K6  1  0.34177789  0.96866184  0.59194052  1
  K  K7  1  0.86730224  0.05165137  0.89771318  1
  O  O8  1  0.13929820  0.02718782  0.28079039  1
  O  O9  1  0.71545750  0.81480724  0.22768536  1
  O  O10  1  0.30255112  0.19162211  0.89009875  1
  O  O11  1  0.80143523  0.03455462  0.55846834  1
  O  O12  1  0.27909136  0.51330125  0.60478365  1
  Ti  Ti13  1  0.76479280  0.56781238  0.08120556  1
  Ti  Ti14  1  0.85095197  0.05159774  0.33466384  1
  K  K15  1  0.78133595  0.54006040  0.58283979  1
  F  F16  1  0.17850620  0.67298687  0.71990103  1
  Ca  Ca17  1  0.18053594  0.17712072  0.72007787  1
  F  F18  1  0.17619503  0.17513551  0.22223257  1
  F  F19  1  0.68100768  0.16811627  0.72116441  1
  Rb  Rb20  1  0.68390369  0.67817986  0.22037427  1
  P  P21  1  0.89975089  0.08304054  0.71792114  1
  O  O22  1  0.04761056  0.05965519  0.92087764  1
  O  O23  1  0.41056672  0.17671859  0.31161729  1
  Li  Li24  1  0.03403238  0.50839221  0.82978100  1
  O  O25  1  0.38093442  0.53631425  0.91373909  1
  Cu  Cu26  1  0.45824537  0.84413314  0.59707797  1
  H  H27  1  0.84531826  0.44197574  0.33021924  1
  O  O28  1  0.38984790  0.64058584  0.34717190  1
  O  O29  1  0.96411753  0.89760906  0.55590349  1
  Li  Li30  1  0.15478276  0.95849067  0.22441036  1
  O  O31  1  0.90002453  0.37171739  0.55586314  1
  H  H32  1  0.51803529  0.23464881  0.80827028  1
  O  O33  1  0.61045325  0.04521443  0.81078851  1
  O  O34  1  0.76784492  0.47198099  0.13011709  1
  P  P35  1  0.48261306  0.46068791  0.18533760  1
  F  F36  1  0.28127030  0.57222027  0.76797622  1
  Li  Li37  1  0.15477905  0.43405759  0.63249820  1
  Cs  Cs38  1  0.93240917  0.17153764  0.36803290  1
  F  F39  1  0.80345035  0.54913545  0.72455716  1
  F  F40  1  0.28188404  0.52581400  0.27327055  1
  F  F41  1  0.28632620  0.07125924  0.71913695  1
  Tm  Tm42  1  0.45462239  0.71512020  0.90445715  1
  Cl  Cl43  1  0.63155717  0.91229135  0.08604664  1
  F  F44  1  0.96644139  0.21607015  0.63245642  1
  F  F45  1  0.32813013  0.56572986  0.62214690  1
  W  W46  1  0.24666318  0.29544583  0.36018360  1
  F  F47  1  0.14517447  0.03315802  0.10244877  1
  K  K48  1  0.73950344  0.80434698  0.85835266  1
  F  F49  1  0.96756190  0.57293379  0.29556575  1
  F  F50  1  0.51409990  0.03058745  0.41579634  1
  F  F51  1  0.51657307  0.37832114  0.08879447  1
