# generated using pymatgen
data_Cs2Rb2Ba2Na2Li2LaTi2ZnGaCo2Bi2SbAsHW2(ClO7)4
_symmetry_space_group_name_H-M   'P 1'
_cell_length_a   6.19659805
_cell_length_b   6.36089897
_cell_length_c   8.49795151
_cell_angle_alpha   93.65718842
_cell_angle_beta   93.44322205
_cell_angle_gamma   90.87302399
_symmetry_Int_Tables_number   1
_chemical_formula_structural
Cs2Rb2Ba2Na2Li2LaTi2ZnGaCo2Bi2SbAsHW2(ClO7)4
_chemical_formula_sum
'Cs2 Rb2 Ba2 Na2 Li2 La1 Ti2 Zn1 Ga1 Co2 Bi2 Sb1 As1 H1 W2 Cl4 O28'
_cell_volume   333.60802437
_cell_formula_units_Z   1
loop_
 _symmetry_equiv_pos_site_id
 _symmetry_equiv_pos_as_xyz
  1  'x, y, z'
loop_
 _atom_site_type_symbol
 _atom_site_label
 _atom_site_symmetry_multiplicity
 _atom_site_fract_x
 _atom_site_fract_y
 _atom_site_fract_z
 _atom_site_occupancy
  Rb  Rb0  1  0.65612513  0.91156846  0.44426280  1
  O  O1  1  0.43343523  0.52393258  0.71069068  1
  Ba  Ba2  1  0.14612857  0.42734942  0.44744062  1
  Ba  Ba3  1  0.61395735  0.38912791  0.02889829  1
  As  As4  1  0.66854316  0.42869976  0.62379944  1
  O  O5  1  0.86151713  0.61509258  0.66694808  1
  O  O6  1  0.76334977  0.20548087  0.72029579  1
  Cl  Cl7  1  0.61966014  0.89532542  0.06267843  1
  Cl  Cl8  1  0.15615289  0.92769873  0.40451393  1
  Rb  Rb9  1  0.09627222  0.87800455  0.90082550  1
  O  O10  1  0.63092613  0.40512791  0.39876953  1
  Cl  Cl11  1  0.12052795  0.39649835  0.08001729  1
  Cl  Cl12  1  0.17674328  0.00260175  0.09686054  1
  O  O13  1  0.56822175  0.89876294  0.59477079  1
  O  O14  1  0.26517045  0.59584588  0.61170030  1
  Na  Na15  1  0.96069533  0.97925830  0.46003169  1
  W  W16  1  0.58272153  0.57126868  0.60653692  1
  O  O17  1  0.81087232  0.45658186  0.40184489  1
  Cs  Cs18  1  0.82467782  0.75089961  0.96838909  1
  O  O19  1  0.71140867  0.34674147  0.81663024  1
  Cs  Cs20  1  0.40680161  0.35189798  0.24588467  1
  Na  Na21  1  0.18016775  0.20970547  0.74048662  1
  O  O22  1  0.80515379  0.57518226  0.76838893  1
  O  O23  1  0.80500048  0.10305025  0.35147628  1
  W  W24  1  0.80046070  0.84303713  0.56314236  1
  O  O25  1  0.30311871  0.84183955  0.56212050  1
  La  La26  1  0.30042329  0.33946574  0.56018585  1
  O  O27  1  0.29995662  0.34278488  0.06850867  1
  O  O28  1  0.80879515  0.10314702  0.77378273  1
  Bi  Bi29  1  0.80241281  0.33757281  0.06150249  1
  O  O30  1  0.80757165  0.57919526  0.34713364  1
  Li  Li31  1  0.62669897  0.99719834  0.48437953  1
  O  O32  1  0.64898914  0.33599415  0.43070960  1
  Zn  Zn33  1  0.93548447  0.59478599  0.00624841  1
  O  O34  1  0.12233618  0.79254931  0.39768443  1
  Ga  Ga35  1  0.19906707  0.52848589  0.53264189  1
  H  H36  1  0.06992950  0.11428794  0.79285520  1
  O  O37  1  0.39001131  0.69482780  0.90143269  1
  O  O38  1  0.89781827  0.18566212  0.90622032  1
  Li  Li39  1  0.49623257  0.10838537  0.05764762  1
  O  O40  1  0.86915022  0.13251306  0.13247013  1
  O  O41  1  0.88430172  0.67043668  0.21975061  1
  O  O42  1  0.05934525  0.84601730  0.80481654  1
  Ti  Ti43  1  0.08772428  0.44891852  0.20425233  1
  O  O44  1  0.53439271  0.82593900  0.87104851  1
  O  O45  1  0.52514243  0.26168111  0.78676236  1
  Sb  Sb46  1  0.64996344  0.88812536  0.19981703  1
  O  O47  1  0.06866833  0.30491924  0.87486708  1
  O  O48  1  0.41561672  0.13241270  0.18639389  1
  Co  Co49  1  0.79820204  0.02212971  0.81105411  1
  Bi  Bi50  1  0.60403496  0.38052934  0.52478838  1
  Ti  Ti51  1  0.31517383  0.08914360  0.89227486  1
  O  O52  1  0.23667517  0.45107824  0.49322566  1
  O  O53  1  0.37306866  0.63131803  0.15925273  1
  Co  Co54  1  0.23107937  0.57569355  0.80519849  1
  O  O55  1  0.70615625  0.02074114  0.49915919  1
