# generated using pymatgen
data_K3Rb2Na6SrLi7YbNdU2TiFe2Cu2Re2Ge(O4F3)6
_symmetry_space_group_name_H-M   'P 1'
_cell_length_a   4.87255812
_cell_length_b   6.16130209
_cell_length_c   8.69777489
_cell_angle_alpha   82.62377167
_cell_angle_beta   85.96931458
_cell_angle_gamma   85.10387421
_symmetry_Int_Tables_number   1
_chemical_formula_structural
K3Rb2Na6SrLi7YbNdU2TiFe2Cu2Re2Ge(O4F3)6
_chemical_formula_sum
'Rb2 K3 Na6 Sr1 Li7 Yb1 Nd1 U2 Ti1 Fe2 Re2 Cu2 Ge1 O24 F18'
_cell_volume   257.54715254
_cell_formula_units_Z   1
loop_
 _symmetry_equiv_pos_site_id
 _symmetry_equiv_pos_as_xyz
  1  'x, y, z'
loop_
 _atom_site_type_symbol
 _atom_site_label
 _atom_site_symmetry_multiplicity
 _atom_site_fract_x
 _atom_site_fract_y
 _atom_site_fract_z
 _atom_site_occupancy
  Ti  Ti0  1  0.61300832  0.73167056  0.96733725  1
  O  O1  1  0.72154385  0.02068315  0.96552742  1
  Li  Li2  1  0.62923110  0.88738990  0.59140307  1
  O  O3  1  0.73477733  0.67439121  0.78802884  1
  Li  Li4  1  0.08496546  0.01912844  0.90310895  1
  O  O5  1  0.17715044  0.29041412  0.73099428  1
  Li  Li6  1  0.64548892  0.55249536  0.34715056  1
  Na  Na7  1  0.65242475  0.32015732  0.76218045  1
  Li  Li8  1  0.12194654  0.62885696  0.76642132  1
  Li  Li9  1  0.11938449  0.50849020  0.14897570  1
  U  U10  1  0.18733783  0.24704781  0.50949973  1
  O  O11  1  0.75319725  0.81978983  0.39413843  1
  Ge  Ge12  1  0.11107533  0.83578372  0.38992837  1
  O  O13  1  0.25257984  0.71818680  0.95894909  1
  O  O14  1  0.23401971  0.57708907  0.35824001  1
  O  O15  1  0.67551637  0.24675474  0.51155484  1
  O  O16  1  0.19318993  0.12813851  0.28827950  1
  Na  Na17  1  0.66342801  0.14743364  0.19168098  1
  O  O18  1  0.21369754  0.87771171  0.58496773  1
  O  O19  1  0.73088098  0.51587927  0.13034716  1
  Re  Re20  1  0.67861849  0.42106947  0.79237556  1
  O  O21  1  0.38327700  0.46211672  0.85133499  1
  O  O22  1  0.11976963  0.72895426  0.59181499  1
  Na  Na23  1  0.17827007  0.92083174  0.79059023  1
  O  O24  1  0.37031817  0.97723573  0.33511209  1
  Fe  Fe25  1  0.67684454  0.91965687  0.29550481  1
  O  O26  1  0.99228317  0.85967213  0.24378729  1
  Re  Re27  1  0.17647563  0.91834092  0.29430836  1
  O  O28  1  0.72551978  0.12512034  0.98117745  1
  Na  Na29  1  0.17755476  0.41954640  0.29273719  1
  O  O30  1  0.49000701  0.60786486  0.10059088  1
  F  F31  1  0.87242645  0.60725230  0.09807181  1
  Li  Li32  1  0.67846066  0.42041218  0.29149348  1
  Na  Na33  1  0.68011081  0.91867036  0.79393494  1
  O  O34  1  0.97268945  0.37496585  0.72868609  1
  O  O35  1  0.62481600  0.71413130  0.60420775  1
  O  O36  1  0.23594919  0.10661665  0.99870229  1
  Fe  Fe37  1  0.17513718  0.42324466  0.79549122  1
  F  F38  1  0.48807621  0.22841765  0.48119932  1
  O  O39  1  0.86225599  0.23070589  0.48096883  1
  Rb  Rb40  1  0.42385694  0.22417149  0.34888718  1
  Sr  Sr41  1  0.17519619  0.97014713  0.10148996  1
  F  F42  1  0.93240261  0.21069071  0.86269975  1
  F  F43  1  0.41106239  0.73562139  0.34345537  1
  F  F44  1  0.93337268  0.21051691  0.34572768  1
  F  F45  1  0.41596431  0.20926329  0.86373967  1
  K  K46  1  0.67510837  0.47751081  0.59674358  1
  F  F47  1  0.93932229  0.73121840  0.33700347  1
  F  F48  1  0.41699538  0.73490703  0.85969567  1
  Rb  Rb49  1  0.92952150  0.72582126  0.84896040  1
  Nd  Nd50  1  0.27272588  0.65154558  0.63285083  1
  O  O51  1  0.95096827  0.87115973  0.83279544  1
  Li  Li52  1  0.13483600  0.00397261  0.98417193  1
  Cu  Cu53  1  0.74158096  0.62367958  0.02337000  1
  F  F54  1  0.41521707  0.22377133  0.83659452  1
  O  O55  1  0.07749672  0.94459903  0.32565716  1
  F  F56  1  0.91017652  0.35887790  0.88866615  1
  Cu  Cu57  1  0.83448625  0.73452556  0.38550317  1
  Yb  Yb58  1  0.78319633  0.15063719  0.57458150  1
  Na  Na59  1  0.39747891  0.24673766  0.19461024  1
  F  F60  1  0.40625730  0.66703498  0.95511806  1
  O  O61  1  0.55861908  0.94789553  0.47686821  1
  F  F62  1  0.09639379  0.42729595  0.45290953  1
  O  O63  1  0.64437115  0.53374028  0.34736222  1
  F  F64  1  0.13920712  0.62499654  0.05021118  1
  K  K65  1  0.63636470  0.62501955  0.56143081  1
  F  F66  1  0.65626782  0.64088696  0.07060900  1
  K  K67  1  0.10153440  0.16780561  0.62955499  1
  U  U68  1  0.86594558  0.39094603  0.09251738  1
  F  F69  1  0.59456325  0.14281484  0.64639384  1
  F  F70  1  0.07302719  0.14187655  0.11408365  1
  F  F71  1  0.14011933  0.64213479  0.55226803  1
  F  F72  1  0.60015464  0.16242494  0.14695466  1
