# generated using pymatgen
data_Ce3TiAlZnGaFe4Co8NiAg3B2P3N8O19F12
_symmetry_space_group_name_H-M   'P 1'
_cell_length_a   5.77787256
_cell_length_b   5.78773308
_cell_length_c   6.32254696
_cell_angle_alpha   106.57270813
_cell_angle_beta   83.77281189
_cell_angle_gamma   88.57794189
_symmetry_Int_Tables_number   1
_chemical_formula_structural   Ce3TiAlZnGaFe4Co8NiAg3B2P3N8O19F12
_chemical_formula_sum
'Ce3 Ti1 Al1 Zn1 Ga1 Fe4 Co8 Ni1 Ag3 B2 P3 N8 O19 F12'
_cell_volume   201.10685677
_cell_formula_units_Z   1
loop_
 _symmetry_equiv_pos_site_id
 _symmetry_equiv_pos_as_xyz
  1  'x, y, z'
loop_
 _atom_site_type_symbol
 _atom_site_label
 _atom_site_symmetry_multiplicity
 _atom_site_fract_x
 _atom_site_fract_y
 _atom_site_fract_z
 _atom_site_occupancy
  N  N0  1  0.32506227  0.93999094  0.93675160  1
  Ni  Ni1  1  0.43389753  0.37815517  0.52793747  1
  Al  Al2  1  0.81443787  0.65101349  0.37387136  1
  Ce  Ce3  1  0.29411924  0.56001443  0.04176975  1
  N  N4  1  0.13752449  0.35858524  0.71296209  1
  P  P5  1  0.16916670  0.08583559  0.17921884  1
  Ce  Ce6  1  0.23189080  0.92730689  0.59575778  1
  P  P7  1  0.88107276  0.47217080  0.71675622  1
  N  N8  1  0.98609042  0.87834126  0.24948105  1
  N  N9  1  0.86450011  0.74980795  0.67446846  1
  N  N10  1  0.49433810  0.60809809  0.36643547  1
  N  N11  1  0.64055336  0.36248308  0.77414131  1
  N  N12  1  0.00254928  0.34301049  0.19227266  1
  Ce  Ce13  1  0.71328408  0.06154172  0.01481984  1
  N  N14  1  0.40736991  0.11430899  0.31998101  1
  Fe  Fe15  1  0.79857808  0.80918562  0.96722788  1
  O  O16  1  0.30800992  0.14701748  0.36145830  1
  O  O17  1  0.54642797  0.59810907  0.09206029  1
  Fe  Fe18  1  0.15902616  0.38281164  0.55841899  1
  O  O19  1  0.77224022  0.36980334  0.41864339  1
  Fe  Fe20  1  0.63879830  0.67749697  0.55196261  1
  Fe  Fe21  1  0.78309137  0.34078431  0.94176644  1
  O  O22  1  0.76233053  0.93696940  0.45184261  1
  P  P23  1  0.63642800  0.12904923  0.34226161  1
  O  O24  1  0.05938427  0.61206830  0.09918930  1
  O  O25  1  0.46315220  0.85626334  0.77896285  1
  O  O26  1  0.29433370  0.62439781  0.40185672  1
  B  B27  1  0.29373279  0.05090887  0.80686545  1
  O  O28  1  0.39679641  0.25008020  0.76321036  1
  O  O29  1  0.68994635  0.09010293  0.13420339  1
  O  O30  1  0.88459134  0.57357681  0.73730773  1
  O  O31  1  0.03351239  0.04345676  0.87408948  1
  B  B32  1  0.29951471  0.61026013  0.19830948  1
  F  F33  1  0.61513716  0.62321013  0.98194957  1
  F  F34  1  0.60286039  0.09314223  0.09177798  1
  F  F35  1  0.61224359  0.72587824  0.51293164  1
  F  F36  1  0.61731237  0.19116545  0.61551380  1
  F  F37  1  0.11074876  0.40885982  0.29961503  1
  Ga  Ga38  1  0.61789250  0.91051489  0.79832351  1
  F  F39  1  0.10386608  0.91226619  0.79483408  1
  Zn  Zn40  1  0.60483074  0.40639022  0.29854268  1
  Ag  Ag41  1  0.73949528  0.78699857  0.32622206  1
  Ag  Ag42  1  0.55397558  0.53756851  0.07398254  1
  F  F43  1  0.52042359  0.00141096  0.97570568  1
  F  F44  1  0.29237589  0.07685195  0.61196989  1
  F  F45  1  0.94125539  0.14291027  0.10804519  1
  F  F46  1  0.94345963  0.57338190  0.67808020  1
  F  F47  1  0.52774626  0.42891580  0.54523915  1
  F  F48  1  0.16916338  0.50119585  0.04215033  1
  Ag  Ag49  1  0.91983312  0.02660027  0.56432414  1
  Ti  Ti50  1  0.23267949  0.29016224  0.82177341  1
  Co  Co51  1  0.18543829  0.32831001  0.49903151  1
  Co  Co52  1  0.68682802  0.58097547  0.37920785  1
  O  O53  1  0.43697229  0.45153463  0.18917552  1
  O  O54  1  0.44337639  0.45533890  0.68824291  1
  O  O55  1  0.93052381  0.19827953  0.31078765  1
  Co  Co56  1  0.18828197  0.83310789  0.25481486  1
  O  O57  1  0.93481386  0.70073569  0.56519747  1
  Co  Co58  1  0.18467835  0.33002943  0.00163125  1
  O  O59  1  0.44107333  0.95233482  0.93992484  1
  O  O60  1  0.93399304  0.20912115  0.81477833  1
  Co  Co61  1  0.68105114  0.08194219  0.12882264  1
  Co  Co62  1  0.19122754  0.83025801  0.74937934  1
  Co  Co63  1  0.68623263  0.57768428  0.87515318  1
  O  O64  1  0.43673477  0.95052677  0.44022039  1
  O  O65  1  0.93233854  0.70143640  0.05727375  1
  Co  Co66  1  0.69293368  0.07890410  0.62535840  1
