# generated using pymatgen
data_CsK5NaSrLi4TmMgTi2FeCuAgH2WClO11F18
_symmetry_space_group_name_H-M   'P 1'
_cell_length_a   5.98933172
_cell_length_b   6.34596920
_cell_length_c   7.88683271
_cell_angle_alpha   82.46167755
_cell_angle_beta   93.14611816
_cell_angle_gamma   90.42332458
_symmetry_Int_Tables_number   1
_chemical_formula_structural   CsK5NaSrLi4TmMgTi2FeCuAgH2WClO11F18
_chemical_formula_sum
'Cs1 K5 Na1 Sr1 Li4 Tm1 Mg1 Ti2 Fe1 Cu1 Ag1 H2 W1 Cl1 O11 F18'
_cell_volume   296.72498676
_cell_formula_units_Z   1
loop_
 _symmetry_equiv_pos_site_id
 _symmetry_equiv_pos_as_xyz
  1  'x, y, z'
loop_
 _atom_site_type_symbol
 _atom_site_label
 _atom_site_symmetry_multiplicity
 _atom_site_fract_x
 _atom_site_fract_y
 _atom_site_fract_z
 _atom_site_occupancy
  Ag  Ag0  1  0.36527237  0.10633342  0.98896778  1
  O  O1  1  0.95543498  0.53848147  0.18313509  1
  O  O2  1  0.93511707  0.19118686  0.45006782  1
  O  O3  1  0.40771961  0.33973992  0.77833885  1
  Ti  Ti4  1  0.88219619  0.24672863  0.23382796  1
  O  O5  1  0.42963085  0.70761168  0.54115778  1
  K  K6  1  0.90378171  0.25388551  0.78232402  1
  O  O7  1  0.76555079  0.68121189  0.82136029  1
  K  K8  1  0.40596235  0.12593308  0.49204367  1
  O  O9  1  0.01431043  0.05248707  0.09836795  1
  K  K10  1  0.44656393  0.61284804  0.20939192  1
  Mg  Mg11  1  0.98147494  0.75701594  0.99871320  1
  Ti  Ti12  1  0.47202051  0.62983304  0.75914264  1
  O  O13  1  0.28889194  0.76743972  0.89652675  1
  K  K14  1  0.94281447  0.74930364  0.50185525  1
  O  O15  1  0.57431138  0.21643758  0.19766892  1
  F  F16  1  0.78896636  0.73968410  0.07531694  1
  F  F17  1  0.28698054  0.24473663  0.06970116  1
  F  F18  1  0.78710419  0.24005392  0.56937385  1
  Li  Li19  1  0.78984636  0.24759150  0.07373991  1
  Sr  Sr20  1  0.29058596  0.74611384  0.57142317  1
  F  F21  1  0.90068418  0.34660527  0.46747503  1
  Li  Li22  1  0.97279954  0.22334357  0.97152156  1
  Li  Li23  1  0.40186650  0.00740442  0.22851023  1
  H  H24  1  0.65533113  0.59396070  0.06488892  1
  O  O25  1  0.51790428  0.96889162  0.56145072  1
  F  F26  1  0.68198854  0.10311389  0.94944900  1
  Cu  Cu27  1  0.07358301  0.61596954  0.14452131  1
  O  O28  1  0.12365294  0.92939067  0.80867636  1
  F  F29  1  0.23456733  0.35789871  0.00531270  1
  Fe  Fe30  1  0.82533067  0.96089298  0.66322380  1
  O  O31  1  0.79855084  0.61027771  0.93875086  1
  Na  Na32  1  0.52985013  0.50461954  0.65811563  1
  F  F33  1  0.99964702  0.89461285  0.34188774  1
  F  F34  1  0.40380511  0.63777810  0.24937673  1
  H  H35  1  0.30952555  0.96155518  0.68621588  1
  Cs  Cs36  1  0.09332126  0.64871430  0.96468180  1
  Cl  Cl37  1  0.38516095  0.92039716  0.23749846  1
  Li  Li38  1  0.85686231  0.39039901  0.71037620  1
  F  F39  1  0.74163085  0.74993855  0.61152840  1
  F  F40  1  0.72419596  0.25791717  0.58703983  1
  Tm  Tm41  1  0.56579524  0.11727777  0.42867416  1
  F  F42  1  0.21051644  0.27577236  0.60178465  1
  F  F43  1  0.74478334  0.30075255  0.06263524  1
  F  F44  1  0.44199127  0.62543392  0.82184064  1
  F  F45  1  0.61639291  0.15400389  0.35017583  1
  F  F46  1  0.80386549  0.96760744  0.81919658  1
  W  W47  1  0.53083843  0.88938177  0.09099218  1
  K  K48  1  0.03064993  0.38786221  0.58716828  1
  F  F49  1  0.80244601  0.61884087  0.15165471  1
  F  F50  1  0.26414624  0.15588556  0.01650454  1
  F  F51  1  0.25646383  0.81185687  0.35421330  1
