# generated using pymatgen
data_Cs2K5RbLi5MgTi2MnCu2PH2WO13F16
_symmetry_space_group_name_H-M   'P 1'
_cell_length_a   5.98933172
_cell_length_b   6.34596920
_cell_length_c   7.88683271
_cell_angle_alpha   82.46167755
_cell_angle_beta   93.14611816
_cell_angle_gamma   90.42332458
_symmetry_Int_Tables_number   1
_chemical_formula_structural   Cs2K5RbLi5MgTi2MnCu2PH2WO13F16
_chemical_formula_sum
'Cs2 K5 Rb1 Li5 Mg1 Ti2 Mn1 Cu2 P1 H2 W1 O13 F16'
_cell_volume   296.72498676
_cell_formula_units_Z   1
loop_
 _symmetry_equiv_pos_site_id
 _symmetry_equiv_pos_as_xyz
  1  'x, y, z'
loop_
 _atom_site_type_symbol
 _atom_site_label
 _atom_site_symmetry_multiplicity
 _atom_site_fract_x
 _atom_site_fract_y
 _atom_site_fract_z
 _atom_site_occupancy
  Mn  Mn0  1  0.63516355  0.23464644  0.56864387  1
  K  K1  1  0.39678550  0.73815387  0.73074901  1
  O  O2  1  0.34725672  0.24078891  0.71563506  1
  Ti  Ti3  1  0.45088193  0.73189992  0.29892698  1
  K  K4  1  0.55971879  0.24158719  0.05777382  1
  O  O5  1  0.45519793  0.73881388  0.07024688  1
  O  O6  1  0.61515260  0.48728287  0.37291172  1
  O  O7  1  0.61452532  0.97328281  0.38433975  1
  Li  Li8  1  0.87235534  0.73775035  0.52410889  1
  K  K9  1  0.10217112  0.23122349  0.36741683  1
  O  O10  1  0.15852630  0.73341471  0.38145471  1
  O  O11  1  0.04953454  0.23438764  0.02730114  1
  O  O12  1  0.87990719  0.47619566  0.71356231  1
  O  O13  1  0.87992787  0.00271035  0.71983850  1
  Ti  Ti14  1  0.04882122  0.23957343  0.79788220  1
  K  K15  1  0.94851655  0.72878927  0.04426705  1
  F  F16  1  0.11401346  0.47885689  0.66751051  1
  F  F17  1  0.10544307  0.97978681  0.17529552  1
  F  F18  1  0.61166596  0.47911054  0.16990808  1
  Rb  Rb19  1  0.60117000  0.98242062  0.66408277  1
  Mg  Mg20  1  0.10479265  0.47844809  0.17054358  1
  Li  Li21  1  0.38855016  0.83549130  0.89945275  1
  O  O22  1  0.40381593  0.84015083  0.25871104  1
  Cu  Cu23  1  0.32907996  0.50644749  0.49875897  1
  H  H24  1  0.90138251  0.80887794  0.86903065  1
  Cu  Cu25  1  0.70930517  0.91997802  0.40735018  1
  F  F26  1  0.71348733  0.01314857  0.73170906  1
  O  O27  1  0.26528120  0.34770569  0.25178120  1
  Li  Li28  1  0.83136004  0.33338562  0.77262110  1
  P  P29  1  0.99990749  0.44835225  0.19264545  1
  O  O30  1  0.04153413  0.67122632  0.92928243  1
  O  O31  1  0.84775424  0.23679735  0.15273666  1
  O  O32  1  0.90395331  0.56921279  0.40030557  1
  F  F33  1  0.52513230  0.58285171  0.72309113  1
  H  H34  1  0.31441614  0.01768242  0.26292777  1
  F  F35  1  0.21250774  0.19890079  0.76027411  1
  F  F36  1  0.25351027  0.57750070  0.15093914  1
  Cs  Cs37  1  0.61774677  0.95139349  0.03090036  1
  Cs  Cs38  1  0.88756412  0.19740909  0.27993825  1
  Li  Li39  1  0.12958796  0.44698849  0.53080118  1
  F  F40  1  0.25960788  0.57404357  0.65268874  1
  Li  Li41  1  0.38021690  0.70506728  0.77948296  1
  F  F42  1  0.25083441  0.07338412  0.65527850  1
  F  F43  1  0.75545877  0.57372683  0.65273011  1
  K  K44  1  0.33851174  0.68871391  0.48010242  1
  W  W45  1  0.83870053  0.19447196  0.98161441  1
  F  F46  1  0.92395502  0.46667716  0.24761741  1
  F  F47  1  0.56083411  0.46846548  0.93071020  1
  F  F48  1  0.55197942  0.11590791  0.25843307  1
  F  F49  1  0.11045588  0.91437811  0.03280551  1
  F  F50  1  0.75416148  0.91645640  0.70780230  1
  F  F51  1  0.11338104  0.27353251  0.70904624  1
