# generated using pymatgen
data_K2Rb2Na2La2HoMgScUPaBeNb2AlZn3Cr2CdP2RuPtSe4S19N12Cl
_symmetry_space_group_name_H-M   'P 1'
_cell_length_a   5.14198351
_cell_length_b   6.12207842
_cell_length_c   6.60817671
_cell_angle_alpha   84.47502899
_cell_angle_beta   82.72527313
_cell_angle_gamma   85.29515076
_symmetry_Int_Tables_number   1
_chemical_formula_structural
K2Rb2Na2La2HoMgScUPaBeNb2AlZn3Cr2CdP2RuPtSe4S19N12Cl
_chemical_formula_sum
;
Rb2 K2 Na2 La2 Ho1 Mg1 Sc1 U1 Pa1 Be1 Nb2 Al1 Zn3 Cr2 Cd1 P2 Ru1 Pt1
Se4 S19 N12 Cl1
;
_cell_volume   204.87545568
_cell_formula_units_Z   1
loop_
 _symmetry_equiv_pos_site_id
 _symmetry_equiv_pos_as_xyz
  1  'x, y, z'
loop_
 _atom_site_type_symbol
 _atom_site_label
 _atom_site_symmetry_multiplicity
 _atom_site_fract_x
 _atom_site_fract_y
 _atom_site_fract_z
 _atom_site_occupancy
  Se  Se0  1  0.80014086  0.23578526  0.72775698  1
  Cd  Cd1  1  0.52191985  0.99481124  0.47430164  1
  Pa  Pa2  1  0.50484675  0.48871034  0.97168934  1
  Se  Se3  1  0.79127306  0.73292309  0.20618176  1
  Se  Se4  1  0.22158533  0.74944395  0.73463744  1
  Pt  Pt5  1  0.02056379  0.49181637  0.46904561  1
  Se  Se6  1  0.21665587  0.22670752  0.20246026  1
  Zn  Zn7  1  0.47277236  0.24009129  0.78497875  1
  S  S8  1  0.97020239  0.82921189  0.29694825  1
  S  S9  1  0.48895153  0.32777336  0.13299508  1
  Zn  Zn10  1  0.47299027  0.16547951  0.36890739  1
  S  S11  1  0.50400174  0.00491356  0.99596429  1
  S  S12  1  0.98211747  0.52703738  0.79871213  1
  Be  Be13  1  0.97717565  0.73473942  0.60799176  1
  S  S14  1  0.48103964  0.96781147  0.59627265  1
  S  S15  1  0.98973262  0.49633738  0.43385658  1
  Mg  Mg16  1  0.99935824  0.66399628  0.05028133  1
  S  S17  1  0.29466823  0.37207681  0.46243045  1
  Rb  Rb18  1  0.20146154  0.95280772  0.10868248  1
  S  S19  1  0.60151452  0.72844231  0.38273248  1
  Nb  Nb20  1  0.80757046  0.46056625  0.33684987  1
  S  S21  1  0.84373027  0.58440953  0.13437396  1
  Na  Na22  1  0.44143254  0.05351659  0.42442384  1
  Rb  Rb23  1  0.70913023  0.16771230  0.73815137  1
  S  S24  1  0.52527666  0.31928143  0.98930693  1
  U  U25  1  0.95240086  0.55345690  0.92430598  1
  Cr  Cr26  1  0.41536295  0.37345946  0.16832769  1
  S  S27  1  0.94847119  0.88429910  0.58460271  1
  S  S28  1  0.37316978  0.78704500  0.85768783  1
  S  S29  1  0.93976623  0.21583398  0.26459467  1
  S  S30  1  0.06719346  0.51361442  0.71233135  1
  Cr  Cr31  1  0.48931780  0.71708381  0.67895216  1
  Nb  Nb32  1  0.08354592  0.64398670  0.50829941  1
  N  N33  1  0.45251751  0.77175754  0.08705160  1
  Na  Na34  1  0.17918620  0.06067710  0.44799715  1
  Ru  Ru35  1  0.51569551  0.92511880  0.90541804  1
  Cl  Cl36  1  0.34656519  0.62144399  0.59186530  1
  N  N37  1  0.54801750  0.91568881  0.25006524  1
  N  N38  1  0.91813761  0.14071687  0.09284151  1
  K  K39  1  0.62019759  0.45486426  0.27499858  1
  N  N40  1  0.16352123  0.05991895  0.87444973  1
  N  N41  1  0.65772188  0.06397934  0.42078790  1
  N  N42  1  0.32879153  0.15977141  0.81010932  1
  N  N43  1  0.97666395  0.03927120  0.96252072  1
  K  K44  1  0.90843046  0.43077064  0.80541682  1
  S  S45  1  0.50563276  0.33004573  0.63097709  1
  Zn  Zn46  1  0.73504007  0.00822976  0.12239610  1
  Sc  Sc47  1  0.27646816  0.95201659  0.40277269  1
  N  N48  1  0.99021035  0.44780964  0.60170150  1
  S  S49  1  0.83916587  0.83671057  0.86244452  1
  S  S50  1  0.42619807  0.82530558  0.64450341  1
  P  P51  1  0.27502128  0.65310758  0.12109786  1
  N  N52  1  0.02793060  0.02168850  0.56526327  1
  N  N53  1  0.21903715  0.49789059  0.93436515  1
  N  N54  1  0.05918965  0.68266994  0.22022448  1
  Al  Al55  1  0.27971983  0.53713316  0.70099688  1
  La  La56  1  0.75602973  0.65926474  0.45623952  1
  S  S57  1  0.62559068  0.29598755  0.11954879  1
  Ho  Ho58  1  0.86048418  0.48144922  0.90431225  1
  P  P59  1  0.97639555  0.20339708  0.48309228  1
  S  S60  1  0.11470451  0.17816490  0.25593668  1
  N  N61  1  0.50317770  0.79192710  0.21806547  1
  La  La62  1  0.24177776  0.12681338  0.88497812  1
