# generated using pymatgen
data_K3Rb2Na5SrLi4NdTi3Mn2FeSiAgBiSb2(O11F12)2
_symmetry_space_group_name_H-M   'P 1'
_cell_length_a   4.87255812
_cell_length_b   6.16130209
_cell_length_c   8.69777489
_cell_angle_alpha   82.62377167
_cell_angle_beta   85.96931458
_cell_angle_gamma   85.10387421
_symmetry_Int_Tables_number   1
_chemical_formula_structural
K3Rb2Na5SrLi4NdTi3Mn2FeSiAgBiSb2(O11F12)2
_chemical_formula_sum
'K3 Rb2 Na5 Sr1 Li4 Nd1 Ti3 Mn2 Fe1 Si1 Ag1 Bi1 Sb2 O22 F24'
_cell_volume   257.54715254
_cell_formula_units_Z   1
loop_
 _symmetry_equiv_pos_site_id
 _symmetry_equiv_pos_as_xyz
  1  'x, y, z'
loop_
 _atom_site_type_symbol
 _atom_site_label
 _atom_site_symmetry_multiplicity
 _atom_site_fract_x
 _atom_site_fract_y
 _atom_site_fract_z
 _atom_site_occupancy
  Na  Na0  1  0.14452477  0.88720614  0.99677473  1
  Ti  Ti1  1  0.55445874  0.98314047  0.33239412  1
  O  O2  1  0.89768732  0.36962658  0.07400956  1
  Ti  Ti3  1  0.07150203  0.43388262  0.85741895  1
  Li  Li4  1  0.57746232  0.12854908  0.68261278  1
  O  O5  1  0.42825645  0.25443885  0.28459936  1
  O  O6  1  0.88039553  0.72430617  0.77053207  1
  Mn  Mn7  1  0.57047105  0.62550324  0.68035430  1
  O  O8  1  0.23445553  0.88111490  0.29706335  1
  Ti  Ti9  1  0.06469308  0.80933338  0.51049739  1
  O  O10  1  0.78494376  0.35137865  0.74119127  1
  Na  Na11  1  0.97555995  0.37231463  0.36977950  1
  O  O12  1  0.77203798  0.70499045  0.41632622  1
  O  O13  1  0.31252068  0.19698606  0.87046266  1
  O  O14  1  0.37822816  0.90484798  0.60826790  1
  O  O15  1  0.36390170  0.55831146  0.94738734  1
  O  O16  1  0.26080140  0.52934158  0.59685493  1
  O  O17  1  0.82761508  0.06135148  0.49262050  1
  Mn  Mn18  1  0.57298058  0.28550845  0.02120195  1
  O  O19  1  0.68517923  0.99286634  0.10073864  1
  Na  Na20  1  0.54526454  0.60104430  0.15917951  1
  F  F21  1  0.61785847  0.17937027  0.30628079  1
  Sb  Sb22  1  0.55276024  0.08326479  0.64318758  1
  O  O23  1  0.96563828  0.84194243  0.95539325  1
  O  O24  1  0.15445328  0.28819621  0.33483803  1
  F  F25  1  0.13009210  0.68283343  0.27692729  1
  Sb  Sb26  1  0.04910615  0.08287776  0.65572232  1
  Fe  Fe27  1  0.55339837  0.58265692  0.64279765  1
  O  O28  1  0.34709752  0.51069027  0.96599555  1
  O  O29  1  0.20149060  0.16240476  0.75111502  1
  O  O30  1  0.77193874  0.62242234  0.33057523  1
  O  O31  1  0.76713181  0.30512062  0.77699214  1
  O  O32  1  0.62811464  0.75950199  0.71535659  1
  Si  Si33  1  0.06390905  0.58559394  0.16828185  1
  O  O34  1  0.33570629  0.85469437  0.52254587  1
  Na  Na35  1  0.04913637  0.58766639  0.66114074  1
  Li  Li36  1  0.50649619  0.14424723  0.14050543  1
  O  O37  1  0.45894700  0.41086611  0.59235156  1
  F  F38  1  0.47193113  0.00702013  0.98867941  1
  O  O39  1  0.88717926  0.00745086  0.55713642  1
  F  F40  1  0.13884290  0.88551819  0.28041154  1
  F  F41  1  0.66403151  0.88113230  0.28495610  1
  Sr  Sr42  1  0.90388286  0.12277053  0.04735813  1
  K  K43  1  0.40226451  0.62228942  0.54821754  1
  Rb  Rb44  1  0.65391010  0.86939859  0.79200256  1
  Rb  Rb45  1  0.15523924  0.37327877  0.29371709  1
  F  F46  1  0.14173621  0.36398280  0.80352336  1
  F  F47  1  0.66471916  0.36165768  0.28450197  1
  F  F48  1  0.13989151  0.88464361  0.80635297  1
  F  F49  1  0.66719514  0.36120099  0.80250072  1
  Nd  Nd50  1  0.49303523  0.40333328  0.69699067  1
  F  F51  1  0.12919173  0.65078634  0.80901581  1
  F  F52  1  0.38941553  0.69587159  0.36603901  1
  F  F53  1  0.21151537  0.19960855  0.04856019  1
  F  F54  1  0.61718935  0.43206701  0.01305398  1
  Ag  Ag55  1  0.34828654  0.81059831  0.98090553  1
  Li  Li56  1  0.92330253  0.45045885  0.11636579  1
  Na  Na57  1  0.57689321  0.03759171  0.27988386  1
  F  F58  1  0.78960311  0.24321699  0.42736080  1
  Li  Li59  1  0.96948415  0.95413136  0.61688828  1
  F  F60  1  0.94746816  0.72404701  0.20259583  1
  F  F61  1  0.25305519  0.14765124  0.60772741  1
  F  F62  1  0.70480907  0.03515952  0.88148296  1
  F  F63  1  0.67683995  0.77267218  0.62230527  1
  F  F64  1  0.58352041  0.71690929  0.73055458  1
  F  F65  1  0.13995735  0.21514319  0.65841538  1
  K  K66  1  0.64868999  0.23705678  0.68586653  1
  K  K67  1  0.59625208  0.69776213  0.22453284  1
  F  F68  1  0.66726631  0.21613586  0.18101935  1
  Bi  Bi69  1  0.12069216  0.46900260  0.45326561  1
  F  F70  1  0.10779256  0.71701837  0.25497210  1
  F  F71  1  0.17655617  0.24773856  0.18853170  1
  F  F72  1  0.07433966  0.69725168  0.73266995  1
