# generated using pymatgen
data_K9Sr2CaLaGdNb2Cr2Si4BiHW2SO37F7
_symmetry_space_group_name_H-M   'P 1'
_cell_length_a   4.15510988
_cell_length_b   7.13186741
_cell_length_c   9.11912632
_cell_angle_alpha   106.39878082
_cell_angle_beta   105.92355347
_cell_angle_gamma   89.44393921
_symmetry_Int_Tables_number   1
_chemical_formula_structural   K9Sr2CaLaGdNb2Cr2Si4BiHW2SO37F7
_chemical_formula_sum
'K9 Sr2 Ca1 La1 Gd1 Nb2 Cr2 Si4 Bi1 H1 W2 S1 O37 F7'
_cell_volume   248.61965617
_cell_formula_units_Z   1
loop_
 _symmetry_equiv_pos_site_id
 _symmetry_equiv_pos_as_xyz
  1  'x, y, z'
loop_
 _atom_site_type_symbol
 _atom_site_label
 _atom_site_symmetry_multiplicity
 _atom_site_fract_x
 _atom_site_fract_y
 _atom_site_fract_z
 _atom_site_occupancy
  K  K0  1  0.20900536  0.79386908  0.26084477  1
  O  O1  1  0.38828272  0.85050285  0.61374158  1
  O  O2  1  0.69497108  0.08737868  0.24419993  1
  Sr  Sr3  1  0.55220318  0.95807910  0.92917436  1
  K  K4  1  0.88012582  0.12406880  0.59585774  1
  Sr  Sr5  1  0.87775195  0.63009822  0.59014374  1
  O  O6  1  0.06472858  0.18413070  0.96493077  1
  O  O7  1  0.03561788  0.73419511  0.90750492  1
  O  O8  1  0.71660119  0.49852800  0.26819581  1
  La  La9  1  0.21739988  0.29415989  0.26170999  1
  O  O10  1  0.35532308  0.40006900  0.55648386  1
  K  K11  1  0.54324150  0.46370924  0.92393136  1
  O  O12  1  0.19734570  0.42320263  0.82475591  1
  Si  Si13  1  0.60019708  0.13464932  0.21882631  1
  Nb  Nb14  1  0.05743846  0.38649848  0.64795876  1
  O  O15  1  0.79830599  0.71947634  0.65159500  1
  O  O16  1  0.33004284  0.05419192  0.65001673  1
  Si  Si17  1  0.34345961  0.51812738  0.94794500  1
  O  O18  1  0.46835399  0.33302024  0.31153572  1
  Si  Si19  1  0.62287128  0.91754049  0.73286676  1
  O  O20  1  0.55827636  0.72484261  0.88537353  1
  O  O21  1  0.83704710  0.37783146  0.48236281  1
  Si  Si22  1  0.54754448  0.51919854  0.40665945  1
  F  F23  1  0.13144943  0.70783383  0.02306735  1
  F  F24  1  0.91289335  0.14756760  0.20740479  1
  O  O25  1  0.57582879  0.81719190  0.29763430  1
  O  O26  1  0.47964919  0.23469406  0.06171992  1
  O  O27  1  0.30917868  0.56323540  0.52440405  1
  O  O28  1  0.79605925  0.14431794  0.75077540  1
  K  K29  1  0.37124789  0.79921478  0.84519255  1
  O  O30  1  0.12546176  0.05142993  0.34228900  1
  O  O31  1  0.59619969  0.57833880  0.34552875  1
  O  O32  1  0.82232565  0.28352785  0.06799718  1
  K  K33  1  0.32873949  0.30550289  0.12338416  1
  K  K34  1  0.86894625  0.84611177  0.57201904  1
  O  O35  1  0.90283406  0.04744942  0.85775959  1
  Nb  Nb36  1  0.35875794  0.81333268  0.34537190  1
  O  O37  1  0.35847104  0.79710948  0.14121208  1
  K  K38  1  0.37444225  0.32389078  0.57094848  1
  O  O39  1  0.86743993  0.33682770  0.58130497  1
  O  O40  1  0.52217275  0.29093015  0.87057477  1
  Bi  Bi41  1  0.85423642  0.31166384  0.34357473  1
  H  H42  1  0.88252854  0.37835425  0.68745345  1
  O  O43  1  0.59305966  0.05607390  0.34861791  1
  S  S44  1  0.79040247  0.27127594  0.90844935  1
  O  O45  1  0.12159611  0.57691860  0.34403220  1
  O  O46  1  0.91917968  0.47813722  0.85436159  1
  K  K47  1  0.86044526  0.78985119  0.11468694  1
  O  O48  1  0.36548182  0.82419604  0.55115741  1
  W  W49  1  0.30804846  0.31752682  0.06171334  1
  O  O50  1  0.33690718  0.89236051  0.26446062  1
  O  O51  1  0.46563482  0.30821380  0.29396170  1
  O  O52  1  0.00632493  0.21757264  0.37471360  1
  W  W53  1  0.01942645  0.79720193  0.56821495  1
  O  O54  1  0.87764114  0.83058202  0.31753367  1
  O  O55  1  0.11616676  0.40063435  0.77453691  1
  Ca  Ca56  1  0.38429546  0.01823168  0.76577234  1
  O  O57  1  0.20481411  0.71051407  0.85631531  1
  Gd  Gd58  1  0.68212068  0.56693906  0.30308908  1
  O  O59  1  0.74312353  0.76590252  0.84383833  1
  O  O60  1  0.56721765  0.32700938  0.77161521  1
  F  F61  1  0.92030036  0.63305146  0.08453074  1
  Cr  Cr62  1  0.53765059  0.86688060  0.01676318  1
  O  O63  1  0.42951041  0.61255783  0.28577316  1
  F  F64  1  0.66680837  0.09391102  0.76307148  1
  F  F65  1  0.16450427  0.16630352  0.40542653  1
  F  F66  1  0.20185122  0.17478688  0.96831506  1
  O  O67  1  0.40864375  0.64631063  0.88327348  1
  Cr  Cr68  1  0.29926413  0.39815256  0.15653385  1
  K  K69  1  0.91136241  0.63037372  0.58729511  1
  F  F70  1  0.62999523  0.09542519  0.19663808  1
