# generated using pymatgen
data_CsKRb2LiCa3LaMgTi3AlTl2Co2SiBi2AsPWCl5O27
_symmetry_space_group_name_H-M   'P 1'
_cell_length_a   6.19659805
_cell_length_b   6.36089897
_cell_length_c   8.49795151
_cell_angle_alpha   93.65718842
_cell_angle_beta   93.44322205
_cell_angle_gamma   90.87302399
_symmetry_Int_Tables_number   1
_chemical_formula_structural
CsKRb2LiCa3LaMgTi3AlTl2Co2SiBi2AsPWCl5O27
_chemical_formula_sum
'Cs1 Rb2 K1 Li1 Ca3 La1 Mg1 Ti3 Al1 Tl2 Co2 Si1 Bi2 As1 P1 W1 Cl5 O27'
_cell_volume   333.60802437
_cell_formula_units_Z   1
loop_
 _symmetry_equiv_pos_site_id
 _symmetry_equiv_pos_as_xyz
  1  'x, y, z'
loop_
 _atom_site_type_symbol
 _atom_site_label
 _atom_site_symmetry_multiplicity
 _atom_site_fract_x
 _atom_site_fract_y
 _atom_site_fract_z
 _atom_site_occupancy
  Cl  Cl0  1  0.70426774  0.75358856  0.86647701  1
  Cl  Cl1  1  0.71542060  0.03367696  0.41301665  1
  O  O2  1  0.99430847  0.43068162  0.28358501  1
  As  As3  1  0.20565335  0.60240364  0.30334532  1
  Rb  Rb4  1  0.20398097  0.75360686  0.83986276  1
  O  O5  1  0.20619705  0.81057394  0.18502800  1
  La  La6  1  0.21397771  0.10693527  0.39612079  1
  O  O7  1  0.41470948  0.41926411  0.27311468  1
  O  O8  1  0.23135674  0.73436683  0.49420196  1
  Rb  Rb9  1  0.70380276  0.27418080  0.01291882  1
  Cl  Cl10  1  0.20810452  0.24536872  0.73366320  1
  Tl  Tl11  1  0.70546550  0.55334526  0.51193488  1
  Cs  Cs12  1  0.64998662  0.60665745  0.44530877  1
  O  O13  1  0.08463333  0.54479814  0.67268783  1
  W  W14  1  0.89775741  0.83827621  0.75875765  1
  K  K15  1  0.34506020  0.31877777  0.34014812  1
  O  O16  1  0.83251810  0.75210422  0.01191157  1
  Cl  Cl17  1  0.53051466  0.44917625  0.93089896  1
  O  O18  1  0.59956175  0.02845657  0.67130220  1
  Cl  Cl19  1  0.05887994  0.01771323  0.23707752  1
  O  O20  1  0.09221625  0.03453922  0.66876423  1
  Ca  Ca21  1  0.18683028  0.12352448  0.87488562  1
  Bi  Bi22  1  0.37468526  0.54430944  0.40155995  1
  O  O23  1  0.26018003  0.83575028  0.17947455  1
  O  O24  1  0.25107780  0.82467806  0.73228943  1
  O  O25  1  0.30432379  0.32448989  0.04858848  1
  O  O26  1  0.73859131  0.00117588  0.95535338  1
  Bi  Bi27  1  0.96815622  0.60894763  0.97540969  1
  Al  Al28  1  0.39366528  0.01283630  0.96204966  1
  Tl  Tl29  1  0.87165618  0.05600679  0.48207724  1
  O  O30  1  0.83157921  0.55000144  0.32596374  1
  O  O31  1  0.91799474  0.17915636  0.71388459  1
  O  O32  1  0.58727056  0.12935662  0.98848099  1
  O  O33  1  0.41477051  0.69321579  0.09467167  1
  Li  Li34  1  0.65313321  0.53001291  0.31083727  1
  O  O35  1  0.29048368  0.26982772  0.35124183  1
  Si  Si36  1  0.30156228  0.00771131  0.11450744  1
  Mg  Mg37  1  0.37676284  0.41258782  0.72779900  1
  O  O38  1  0.78353673  0.69255280  0.67448765  1
  P  P39  1  0.87261671  0.97549796  0.83317745  1
  O  O40  1  0.09563889  0.00706295  0.09494375  1
  Ti  Ti41  1  0.34275138  0.61024868  0.66356671  1
  Ca  Ca42  1  0.15036318  0.19947900  0.84102088  1
  Ca  Ca43  1  0.75845033  0.48621151  0.40092444  1
  O  O44  1  0.54733074  0.93036342  0.84052694  1
  O  O45  1  0.70344919  0.08569666  0.34285051  1
  O  O46  1  0.19934332  0.26246566  0.52962226  1
  Co  Co47  1  0.47283608  0.84353596  0.12642320  1
  O  O48  1  0.98532575  0.83164376  0.63125420  1
  Co  Co49  1  0.58837271  0.06453533  0.59289688  1
  O  O50  1  0.37221032  0.75268930  0.41618454  1
  Ti  Ti51  1  0.03973609  0.95932913  0.35728675  1
  O  O52  1  0.70740145  0.43551999  0.72820520  1
  Ti  Ti53  1  0.88175315  0.73468494  0.89889282  1
  O  O54  1  0.24269798  0.58834195  0.91510892  1
  O  O55  1  0.83814305  0.66477293  0.16274014  1
