# generated using pymatgen
data_Ba6LiLa2Tb2GdZrUSn2B2P2H2Ir2Pt2PbS14I3(NO)2
_symmetry_space_group_name_H-M   'P 1'
_cell_length_a   5.11456823
_cell_length_b   5.07620716
_cell_length_c   7.05868673
_cell_angle_alpha   70.18124390
_cell_angle_beta   69.13948822
_cell_angle_gamma   60.55068588
_symmetry_Int_Tables_number   1
_chemical_formula_structural
Ba6LiLa2Tb2GdZrUSn2B2P2H2Ir2Pt2PbS14I3(NO)2
_chemical_formula_sum
'Ba6 Li1 La2 Tb2 Gd1 Zr1 U1 Sn2 B2 P2 H2 Ir2 Pt2 Pb1 S14 I3 N2 O2'
_cell_volume   146.06315454
_cell_formula_units_Z   1
loop_
 _symmetry_equiv_pos_site_id
 _symmetry_equiv_pos_as_xyz
  1  'x, y, z'
loop_
 _atom_site_type_symbol
 _atom_site_label
 _atom_site_symmetry_multiplicity
 _atom_site_fract_x
 _atom_site_fract_y
 _atom_site_fract_z
 _atom_site_occupancy
  S  S0  1  0.79318261  0.58344096  0.02390778  1
  S  S1  1  0.29796010  0.08040497  0.52046782  1
  U  U2  1  0.66332257  0.45525709  0.40822363  1
  Pt  Pt3  1  0.40745929  0.20439738  0.16272900  1
  Pt  Pt4  1  0.91320133  0.70370996  0.65454614  1
  Gd  Gd5  1  0.16314791  0.95361853  0.91405678  1
  S  S6  1  0.54065943  0.31791702  0.79411256  1
  S  S7  1  0.03559928  0.81759065  0.30226162  1
  Pb  Pb8  1  0.69146967  0.35872886  0.73104614  1
  I  I9  1  0.66745913  0.50959688  0.18560465  1
  H  H10  1  0.95325863  0.15545930  0.44306186  1
  I  I11  1  0.48722678  0.95916969  0.61299449  1
  S  S12  1  0.20974061  0.14229141  0.10425287  1
  B  B13  1  0.97338676  0.24893893  0.29684228  1
  B  B14  1  0.02706191  0.99424136  0.04663485  1
  H  H15  1  0.03585226  0.81689107  0.15948312  1
  I  I16  1  0.08332348  0.57678699  0.64549184  1
  O  O17  1  0.88414347  0.05422534  0.91218990  1
  S  S18  1  0.45205998  0.47267532  0.89199299  1
  N  N19  1  0.18583089  0.94087243  0.68821841  1
  S  S20  1  0.79196060  0.14560154  0.14407934  1
  S  S21  1  0.16745941  0.84549314  0.34688041  1
  Li  Li22  1  0.31648892  0.34217465  0.59598726  1
  N  N23  1  0.65903664  0.68484509  0.52706152  1
  O  O24  1  0.95442212  0.39517155  0.56747931  1
  La  La25  1  0.74034476  0.06416375  0.79637945  1
  P  P26  1  0.97436416  0.70516974  0.55631196  1
  La  La27  1  0.48128971  0.50018919  0.22675407  1
  Ir  Ir28  1  0.13372585  0.59324384  0.42322257  1
  P  P29  1  0.63088399  0.57248825  0.55679560  1
  Tb  Tb30  1  0.13304313  0.66721267  0.77316183  1
  Ir  Ir31  1  0.12003372  0.13207170  0.98788744  1
  Tb  Tb32  1  0.64794111  0.62529093  0.14175950  1
  Sn  Sn33  1  0.63485771  0.15297431  0.82164460  1
  Sn  Sn34  1  0.12486480  0.11357538  0.26102495  1
  Zr  Zr35  1  0.61078113  0.08274122  0.49017963  1
  Ba  Ba36  1  0.33533153  0.06723349  0.19159693  1
  Ba  Ba37  1  0.57222927  0.52749377  0.35737336  1
  S  S38  1  0.83120984  0.06460677  0.02549549  1
  S  S39  1  0.06938332  0.53669411  0.52163666  1
  S  S40  1  0.83219081  0.06814582  0.68985069  1
  Ba  Ba41  1  0.33476394  0.06367289  0.85854292  1
  S  S42  1  0.07151499  0.53956413  0.85952544  1
  S  S43  1  0.83582437  0.05490052  0.35667178  1
  Ba  Ba44  1  0.57295990  0.54033476  0.69096333  1
  S  S45  1  0.07796656  0.54158688  0.19179463  1
  Ba  Ba46  1  0.56787002  0.54086083  0.02383304  1
  Ba  Ba47  1  0.33325040  0.06113382  0.52271140  1
