# generated using pymatgen
data_Ba5La2Gd2Tm2Ga4SnB2PPt4Pb2S19INO2
_symmetry_space_group_name_H-M   'P 1'
_cell_length_a   5.11456823
_cell_length_b   5.07620716
_cell_length_c   7.05868673
_cell_angle_alpha   70.18124390
_cell_angle_beta   69.13948822
_cell_angle_gamma   60.55068588
_symmetry_Int_Tables_number   1
_chemical_formula_structural   Ba5La2Gd2Tm2Ga4SnB2PPt4Pb2S19INO2
_chemical_formula_sum
'Ba5 La2 Gd2 Tm2 Ga4 Sn1 B2 P1 Pt4 Pb2 S19 I1 N1 O2'
_cell_volume   146.06315454
_cell_formula_units_Z   1
loop_
 _symmetry_equiv_pos_site_id
 _symmetry_equiv_pos_as_xyz
  1  'x, y, z'
loop_
 _atom_site_type_symbol
 _atom_site_label
 _atom_site_symmetry_multiplicity
 _atom_site_fract_x
 _atom_site_fract_y
 _atom_site_fract_z
 _atom_site_occupancy
  S  S0  1  0.54386175  0.04383227  0.37576309  1
  Gd  Gd1  1  0.65897804  0.17643100  0.98442763  1
  S  S2  1  0.04135063  0.54496968  0.86765367  1
  S  S3  1  0.79034603  0.30471233  0.60107589  1
  S  S4  1  0.28967783  0.80306053  0.10048088  1
  Gd  Gd5  1  0.16400041  0.67435211  0.48572251  1
  Pt  Pt6  1  0.91862512  0.42129514  0.23536989  1
  Pt  Pt7  1  0.41738248  0.92143267  0.73613513  1
  S  S8  1  0.03422546  0.74447131  0.90841502  1
  Ba  Ba9  1  0.66786975  0.19368275  0.77488256  1
  S  S10  1  0.13054411  0.34181476  0.64521551  1
  S  S11  1  0.28061914  0.05758265  0.06848551  1
  S  S12  1  0.53135443  0.73812586  0.75009006  1
  B  B13  1  0.29091936  0.83318782  0.93083626  1
  S  S14  1  0.99509239  0.83661711  0.47867778  1
  B  B15  1  0.03597790  0.63319898  0.68108445  1
  Sn  Sn16  1  0.39916509  0.89562255  0.37985566  1
  I  I17  1  0.61193740  0.42113152  0.24860883  1
  La  La18  1  0.72002923  0.43006814  0.22001255  1
  S  S19  1  0.37151095  0.80932909  0.36647421  1
  O  O20  1  0.33548915  0.35239762  0.96690822  1
  P  P21  1  0.32347548  0.64994949  0.99130094  1
  La  La22  1  0.14935650  0.16995573  0.66405702  1
  S  S23  1  0.51832730  0.86695510  0.78647470  1
  O  O24  1  0.00130031  0.60532534  0.98358864  1
  S  S25  1  0.12354787  0.08360743  0.32020602  1
  N  N26  1  0.49946225  0.82228547  0.16774791  1
  S  S27  1  0.79415834  0.48522598  0.57363355  1
  Pt  Pt28  1  0.20726526  0.70434123  0.50674248  1
  Ga  Ga29  1  0.05758628  0.69261718  0.78211915  1
  Tm  Tm30  1  0.63548118  0.19270587  0.62422854  1
  Ga  Ga31  1  0.27555805  0.20153251  0.36037585  1
  Pt  Pt32  1  0.84281921  0.20446001  0.20053333  1
  Ga  Ga33  1  0.78376633  0.70791125  0.34977752  1
  Tm  Tm34  1  0.41327450  0.71063751  0.08532381  1
  Ga  Ga35  1  0.98860991  0.20567292  0.92736572  1
  Ba  Ba36  1  0.14660895  0.90273446  0.63194007  1
  S  S37  1  0.86888993  0.35133696  0.33228585  1
  Pb  Pb38  1  0.90173572  0.41299060  0.14174850  1
  Ba  Ba39  1  0.15523474  0.91607434  0.97713411  1
  Ba  Ba40  1  0.15579852  0.91174990  0.30831733  1
  S  S41  1  0.61264783  0.82919014  0.46690947  1
  S  S42  1  0.87875068  0.35756269  0.62456203  1
  S  S43  1  0.58647609  0.78029490  0.14567976  1
  Ba  Ba44  1  0.39166009  0.37230307  0.79378557  1
  S  S45  1  0.88133001  0.36510721  0.95838219  1
  S  S46  1  0.64756298  0.90681112  0.80443794  1
  Pb  Pb47  1  0.39423198  0.38461423  0.47598001  1
