# generated using pymatgen
data_K5BaNa2LiCa2ThU4Cu4SiAg4AsRhSeS23NCl7O6
_symmetry_space_group_name_H-M   'P 1'
_cell_length_a   6.16562462
_cell_length_b   6.47381926
_cell_length_c   7.14673281
_cell_angle_alpha   115.88598633
_cell_angle_beta   99.69436646
_cell_angle_gamma   91.25775909
_symmetry_Int_Tables_number   1
_chemical_formula_structural
K5BaNa2LiCa2ThU4Cu4SiAg4AsRhSeS23NCl7O6
_chemical_formula_sum
'K5 Ba1 Na2 Li1 Ca2 Th1 U4 Cu4 Si1 Ag4 As1 Rh1 Se1 S23 N1 Cl7 O6'
_cell_volume   251.50592218
_cell_formula_units_Z   1
loop_
 _symmetry_equiv_pos_site_id
 _symmetry_equiv_pos_as_xyz
  1  'x, y, z'
loop_
 _atom_site_type_symbol
 _atom_site_label
 _atom_site_symmetry_multiplicity
 _atom_site_fract_x
 _atom_site_fract_y
 _atom_site_fract_z
 _atom_site_occupancy
  O  O0  1  0.21981959  0.91925609  0.53877628  1
  As  As1  1  0.94978517  0.84555244  0.39324471  1
  O  O2  1  0.47531894  0.29327363  0.86458421  1
  K  K3  1  0.41868514  0.74598050  0.18212950  1
  Cl  Cl4  1  0.31470919  0.30374706  0.30859569  1
  K  K5  1  0.82866228  0.21765591  0.13212264  1
  O  O6  1  0.47988832  0.87072331  0.85988551  1
  O  O7  1  0.95732903  0.71262771  0.13356900  1
  O  O8  1  0.83318621  0.08864088  0.44788718  1
  O  O9  1  0.81944364  0.66230214  0.45396355  1
  K  K10  1  0.70498204  0.49200690  0.69987106  1
  Se  Se11  1  0.31797281  0.05043189  0.81513703  1
  S  S12  1  0.37329698  0.99541652  0.44625819  1
  S  S13  1  0.02067093  0.33202714  0.93861032  1
  S  S14  1  0.08822732  0.40664893  0.48008806  1
  Ag  Ag15  1  0.56032223  0.85713917  0.21048622  1
  Ag  Ag16  1  0.22571181  0.19659717  0.70613098  1
  Li  Li17  1  0.89251661  0.52553189  0.70861840  1
  U  U18  1  0.89374912  0.52883410  0.20758244  1
  S  S19  1  0.73350954  0.69485313  0.46318078  1
  Ag  Ag20  1  0.22282374  0.18950926  0.20572290  1
  S  S21  1  0.42895180  0.04697440  0.97308260  1
  U  U22  1  0.56613874  0.85798365  0.70812178  1
  S  S23  1  0.73000723  0.68527740  0.95365340  1
  Cl  Cl24  1  0.52813524  0.01569243  0.18509409  1
  Cl  Cl25  1  0.02079944  0.52161860  0.19264200  1
  Cl  Cl26  1  0.52637672  0.01561225  0.68186182  1
  K  K27  1  0.02319725  0.01848566  0.68577677  1
  Cl  Cl28  1  0.02103626  0.01875732  0.18756354  1
  Cl  Cl29  1  0.02225999  0.52369124  0.68131840  1
  K  K30  1  0.52681422  0.52257586  0.18249077  1
  Na  Na31  1  0.27475178  0.26857686  0.93745255  1
  Ag  Ag32  1  0.77591068  0.77245551  0.43391395  1
  Cl  Cl33  1  0.53244936  0.52243203  0.68244052  1
  S  S34  1  0.27601254  0.09545147  0.73697037  1
  S  S35  1  0.03263191  0.01521590  0.19440998  1
  S  S36  1  0.29538280  0.61022007  0.30024487  1
  S  S37  1  0.44728521  0.37959710  0.92354417  1
  S  S38  1  0.61209941  0.73796719  0.55770141  1
  S  S39  1  0.86163211  0.48397991  0.18285096  1
  U  U40  1  0.85984325  0.23343888  0.94847703  1
  S  S41  1  0.88777739  0.24564758  0.54877162  1
  Rh  Rh42  1  0.16656899  0.31138036  0.23546332  1
  Na  Na43  1  0.29923177  0.74732250  0.94693577  1
  S  S44  1  0.06102261  0.54237044  0.74338669  1
  U  U45  1  0.48812127  0.40468791  0.52489495  1
  Th  Th46  1  0.09706296  0.88994223  0.53231555  1
  S  S47  1  0.47072285  0.13433507  0.29086784  1
  S  S48  1  0.76097804  0.91809767  0.89201862  1
  Ba  Ba49  1  0.46570897  0.23591380  0.11343305  1
  S  S50  1  0.34350726  0.86257535  0.76836026  1
  Cu  Cu51  1  0.33577988  0.34395981  0.75113875  1
  S  S52  1  0.81644893  0.33093387  0.72925931  1
  Ca  Ca53  1  0.88364702  0.92365831  0.84618199  1
  Cu  Cu54  1  0.22767654  0.71289843  0.60798645  1
  Si  Si55  1  0.76415092  0.22683161  0.58344913  1
  Ca  Ca56  1  0.65403724  0.45399579  0.38275194  1
  S  S57  1  0.44381168  0.88296366  0.50726897  1
  Cu  Cu58  1  0.07636989  0.87075055  0.27591482  1
  S  S59  1  0.57323921  0.86044753  0.26950550  1
  S  S60  1  0.79321015  0.77164745  0.01893460  1
  S  S61  1  0.05109899  0.53170210  0.97845602  1
  N  N62  1  0.93654990  0.38075602  0.52325994  1
  Cu  Cu63  1  0.14275798  0.11197073  0.46995535  1
  S  S64  1  0.06758173  0.36520067  0.26903933  1
