# generated using pymatgen
data_CsK2TbU7NbGaSiNi3Te10MoP4Rh3AuCl7
_symmetry_space_group_name_H-M   'P 1'
_cell_length_a   4.07229900
_cell_length_b   4.32061529
_cell_length_c   4.85554743
_cell_angle_alpha   93.07030487
_cell_angle_beta   88.81633759
_cell_angle_gamma   97.76748657
_symmetry_Int_Tables_number   1
_chemical_formula_structural   CsK2TbU7NbGaSiNi3Te10MoP4Rh3AuCl7
_chemical_formula_sum
'Cs1 K2 Tb1 U7 Nb1 Ga1 Si1 Ni3 Te10 Mo1 P4 Rh3 Au1 Cl7'
_cell_volume   84.51941569
_cell_formula_units_Z   1
loop_
 _symmetry_equiv_pos_site_id
 _symmetry_equiv_pos_as_xyz
  1  'x, y, z'
loop_
 _atom_site_type_symbol
 _atom_site_label
 _atom_site_symmetry_multiplicity
 _atom_site_fract_x
 _atom_site_fract_y
 _atom_site_fract_z
 _atom_site_occupancy
  Ni  Ni0  1  0.22850335  0.95540845  0.27823022  1
  Tb  Tb1  1  0.72776014  0.44849837  0.07938853  1
  Si  Si2  1  0.23245417  0.95311677  0.81784618  1
  Ni  Ni3  1  0.23265821  0.46047869  0.57474285  1
  Ni  Ni4  1  0.72538882  0.95151782  0.58513701  1
  Cl  Cl5  1  0.80998445  0.89286363  0.87818307  1
  K  K6  1  0.31461895  0.15499529  0.11519998  1
  Au  Au7  1  0.81875455  0.65133417  0.11032178  1
  Cl  Cl8  1  0.81588548  0.41695628  0.34755936  1
  Cl  Cl9  1  0.80965227  0.41912842  0.88220668  1
  Cl  Cl10  1  0.81277597  0.89064837  0.34508541  1
  K  K11  1  0.30966800  0.65370846  0.61249965  1
  Cs  Cs12  1  0.90903550  0.51355040  0.70825958  1
  Ga  Ga13  1  0.40172446  0.00663505  0.20071527  1
  Cl  Cl14  1  0.40182501  0.50606525  0.20562068  1
  Cl  Cl15  1  0.40214086  0.00623924  0.70738000  1
  Cl  Cl16  1  0.90413183  0.01217386  0.20304501  1
  P  P17  1  0.09069976  0.47620037  0.19608773  1
  P  P18  1  0.60322988  0.48669431  0.76819700  1
  Rh  Rh19  1  0.07449252  0.01311635  0.31244370  1
  Nb  Nb20  1  0.61942154  0.00306495  0.65563017  1
  Rh  Rh21  1  0.62710196  0.46691814  0.31599444  1
  P  P22  1  0.60766435  0.99708617  0.18879248  1
  Mo  Mo23  1  0.08305539  0.46748811  0.65836740  1
  Rh  Rh24  1  0.34854403  0.73369932  0.99717122  1
  P  P25  1  0.09656717  0.98454338  0.75886834  1
  Te  Te26  1  0.49297395  0.75049090  0.35269704  1
  Te  Te27  1  0.24674077  0.15060410  0.41786611  1
  Te  Te28  1  0.99534279  0.48200044  0.34774792  1
  Te  Te29  1  0.00269664  0.74404067  0.08484463  1
  Te  Te30  1  0.49047813  0.48471791  0.82113993  1
  Te  Te31  1  0.74323404  0.15154584  0.41588974  1
  Te  Te32  1  0.99980569  0.21243954  0.81468666  1
  U  U33  1  0.49956247  0.09478286  0.69646281  1
  U  U34  1  0.99101335  0.09573075  0.08470115  1
  Te  Te35  1  0.48801893  0.22085890  0.08496244  1
  U  U36  1  0.99620748  0.87288171  0.47227901  1
  U  U37  1  0.99318594  0.47963873  0.69529486  1
  U  U38  1  0.49985403  0.48697960  0.47571164  1
  U  U39  1  0.50096238  0.87304729  0.08332810  1
  Te  Te40  1  0.74220037  0.81521273  0.75186062  1
  U  U41  1  0.74521321  0.48297709  0.08470403  1
  Te  Te42  1  0.24567412  0.81645584  0.75594622  1
