# generated using pymatgen
data_K4RbBa2NaLi4CaTmTi2Mn2Cu2BPCl4O15F11
_symmetry_space_group_name_H-M   'P 1'
_cell_length_a   5.98933172
_cell_length_b   6.34596920
_cell_length_c   7.88683271
_cell_angle_alpha   82.46167755
_cell_angle_beta   93.14611816
_cell_angle_gamma   90.42332458
_symmetry_Int_Tables_number   1
_chemical_formula_structural   K4RbBa2NaLi4CaTmTi2Mn2Cu2BPCl4O15F11
_chemical_formula_sum
'K4 Rb1 Ba2 Na1 Li4 Ca1 Tm1 Ti2 Mn2 Cu2 B1 P1 Cl4 O15 F11'
_cell_volume   296.72498676
_cell_formula_units_Z   1
loop_
 _symmetry_equiv_pos_site_id
 _symmetry_equiv_pos_as_xyz
  1  'x, y, z'
loop_
 _atom_site_type_symbol
 _atom_site_label
 _atom_site_symmetry_multiplicity
 _atom_site_fract_x
 _atom_site_fract_y
 _atom_site_fract_z
 _atom_site_occupancy
  O  O0  1  0.89690119  0.92572731  0.40554664  1
  K  K1  1  0.75489092  0.17478853  0.79951459  1
  K  K2  1  0.26203939  0.17040175  0.54052263  1
  O  O3  1  0.64463669  0.37668151  0.43131775  1
  O  O4  1  0.14165844  0.91639644  0.90677619  1
  Mn  Mn5  1  0.77049726  0.66206276  0.54726887  1
  O  O6  1  0.04035768  0.53867823  0.68156844  1
  Ti  Ti7  1  0.26655510  0.67614132  0.79604745  1
  O  O8  1  0.49029624  0.79631996  0.66278982  1
  K  K9  1  0.28035158  0.67631793  0.29543358  1
  Mn  Mn10  1  0.26648885  0.18339351  0.04393501  1
  Ti  Ti11  1  0.76861387  0.16762327  0.29368046  1
  O  O12  1  0.39113015  0.47060528  0.93089223  1
  O  O13  1  0.54566097  0.05192698  0.16147548  1
  K  K14  1  0.77682787  0.68029225  0.04335860  1
  O  O15  1  0.99754977  0.30348346  0.17331859  1
  F  F16  1  0.30259553  0.35078189  0.21633375  1
  Rb  Rb17  1  0.30335793  0.85654801  0.71526539  1
  F  F18  1  0.80153686  0.85454112  0.20968217  1
  Ca  Ca19  1  0.80266321  0.35065451  0.21236074  1
  F  F20  1  0.80483234  0.35510349  0.71345890  1
  O  O21  1  0.11189558  0.54514045  0.92665881  1
  O  O22  1  0.55223948  0.46508324  0.78168797  1
  Cu  Cu23  1  0.11146550  0.61310637  0.26954377  1
  O  O24  1  0.41499954  0.90099287  0.85565925  1
  Cu  Cu25  1  0.76873201  0.73417968  0.86146408  1
  Na  Na26  1  0.56961012  0.06959624  0.16661671  1
  O  O27  1  0.25227636  0.77951187  0.51031399  1
  Li  Li28  1  0.08841950  0.17715864  0.85393596  1
  P  P29  1  0.34118396  0.66421008  0.77992022  1
  O  O30  1  0.99013764  0.99638283  0.19861263  1
  Li  Li31  1  0.59382391  0.29851070  0.53806686  1
  F  F32  1  0.70141357  0.56641763  0.24456918  1
  O  O33  1  0.25207391  0.25372499  0.40069717  1
  B  B34  1  0.07996594  0.04851395  0.41808128  1
  O  O35  1  0.89284897  0.05480819  0.61977679  1
  F  F36  1  0.94743848  0.77642238  0.27004629  1
  Tm  Tm37  1  0.74846220  0.71459603  0.62534815  1
  Cl  Cl38  1  0.78897023  0.19904082  0.64244854  1
  Li  Li39  1  0.16665566  0.43297809  0.24091585  1
  Cl  Cl40  1  0.37484080  0.99508852  0.47242981  1
  Cl  Cl41  1  0.08650073  0.41323048  0.88833874  1
  Cl  Cl42  1  0.47774532  0.66532928  0.03164887  1
  Li  Li43  1  0.11352735  0.97777295  0.88983750  1
  F  F44  1  0.83944869  0.90356672  0.61024767  1
  Ba  Ba45  1  0.33636114  0.90157539  0.35947230  1
  F  F46  1  0.08775820  0.39630559  0.36304766  1
  F  F47  1  0.83759636  0.89469117  0.10360479  1
  F  F48  1  0.33232728  0.64367187  0.85754281  1
  Ba  Ba49  1  0.83568710  0.39804712  0.85881507  1
  F  F50  1  0.58465409  0.39907241  0.36120152  1
  F  F51  1  0.33697388  0.15108374  0.86622316  1
