# generated using pymatgen
data_K10Na2Sr2LaNb3CrSi2P2HW3(O19F3)2
_symmetry_space_group_name_H-M   'P 1'
_cell_length_a   4.15510988
_cell_length_b   7.13186741
_cell_length_c   9.11912632
_cell_angle_alpha   106.39878082
_cell_angle_beta   105.92355347
_cell_angle_gamma   89.44393921
_symmetry_Int_Tables_number   1
_chemical_formula_structural   K10Na2Sr2LaNb3CrSi2P2HW3(O19F3)2
_chemical_formula_sum   'K10 Na2 Sr2 La1 Nb3 Cr1 Si2 P2 H1 W3 O38 F6'
_cell_volume   248.61965617
_cell_formula_units_Z   1
loop_
 _symmetry_equiv_pos_site_id
 _symmetry_equiv_pos_as_xyz
  1  'x, y, z'
loop_
 _atom_site_type_symbol
 _atom_site_label
 _atom_site_symmetry_multiplicity
 _atom_site_fract_x
 _atom_site_fract_y
 _atom_site_fract_z
 _atom_site_occupancy
  O  O0  1  0.88457030  0.19791478  0.31233424  1
  Sr  Sr1  1  0.39444241  0.40784818  0.33278808  1
  K  K2  1  0.06080061  0.24941112  0.66890496  1
  O  O3  1  0.23790443  0.29950088  0.02240739  1
  K  K4  1  0.72673905  0.57962757  0.00250331  1
  Sr  Sr5  1  0.72804368  0.08382321  0.00329481  1
  K  K6  1  0.39397728  0.91267210  0.33022508  1
  O  O7  1  0.57481378  0.95426047  0.68317562  1
  O  O8  1  0.21050009  0.86346143  0.96562290  1
  O  O9  1  0.55126148  0.54304230  0.65680790  1
  La  La10  1  0.05614892  0.75074512  0.66976893  1
  O  O11  1  0.90761167  0.62878668  0.36797339  1
  O  O12  1  0.73462665  0.78339648  0.01013321  1
  O  O13  1  0.46301827  0.19725527  0.19376473  1
  O  O14  1  0.07395056  0.36227462  0.01808212  1
  O  O15  1  0.55217355  0.35646161  0.41049320  1
  Nb  Nb16  1  0.41782057  0.09528776  0.02512326  1
  O  O17  1  0.95417207  0.56009811  0.80272919  1
  Si  Si18  1  0.40628207  0.15875292  0.34387481  1
  O  O19  1  0.63316792  0.35498163  0.94701666  1
  O  O20  1  0.08001663  0.17252402  0.39180514  1
  O  O21  1  0.61397362  0.94874269  0.39798772  1
  Si  Si22  1  0.77320099  0.13324726  0.45121783  1
  K  K23  1  0.88834035  0.60418612  0.24137132  1
  F  F24  1  0.37035894  0.01068090  0.85441631  1
  F  F25  1  0.73821753  0.09251744  0.60337347  1
  F  F26  1  0.22378373  0.85306537  0.12029879  1
  K  K27  1  0.47955659  0.57604492  0.72618240  1
  P  P28  1  0.85941583  0.51822323  0.93827498  1
  Na  Na29  1  0.28749940  0.99963105  0.62288845  1
  O  O30  1  0.06075605  0.23312654  0.12456048  1
  O  O31  1  0.29008433  0.00061745  0.90706766  1
  W  W32  1  0.28942379  0.00223572  0.12214199  1
  K  K33  1  0.78654909  0.99683994  0.87380373  1
  O  O34  1  0.02520355  0.26548380  0.62607640  1
  O  O35  1  0.52534461  0.23190260  0.12720689  1
  K  K36  1  0.28761035  0.50066710  0.37527332  1
  W  W37  1  0.78675872  0.49764216  0.62659341  1
  O  O38  1  0.79183048  0.49732521  0.84209347  1
  K  K39  1  0.79158580  0.99830669  0.37383106  1
  O  O40  1  0.02467866  0.73227996  0.62887102  1
  K  K41  1  0.29056185  0.50046009  0.87256145  1
  Na  Na42  1  0.79010481  0.49997827  0.12301156  1
  O  O43  1  0.51940703  0.77292824  0.12114735  1
  O  O44  1  0.55871654  0.26674145  0.62067276  1
  O  O45  1  0.05474712  0.76908267  0.12240580  1
  O  O46  1  0.55165130  0.73133218  0.62297100  1
  O  O47  1  0.79131883  0.50541478  0.41115358  1
  O  O48  1  0.29017067  0.99682420  0.34270769  1
  O  O49  1  0.65702343  0.13971207  0.26650918  1
  O  O50  1  0.11611577  0.07335196  0.29337835  1
  W  W51  1  0.21494578  0.29118216  0.83955008  1
  Nb  Nb52  1  0.90608621  0.82516342  0.30460376  1
  O  O53  1  0.74694091  0.58603954  0.30936873  1
  O  O54  1  0.02632454  0.01887634  0.89601475  1
  O  O55  1  0.38287655  0.52654302  0.84177357  1
  H  H56  1  0.11181306  0.05880491  0.48624182  1
  O  O57  1  0.25697830  0.51630002  0.38288772  1
  O  O58  1  0.88522267  0.57672668  0.76475167  1
  O  O59  1  0.48545834  0.97233516  0.87588567  1
  Nb  Nb60  1  0.56522471  0.56068951  0.06565458  1
  O  O61  1  0.67391062  0.35066116  0.86189175  1
  O  O62  1  0.87292361  0.96387094  0.20118502  1
  K  K63  1  0.79074872  0.38528898  0.40346268  1
  F  F64  1  0.44128361  0.89314705  0.56679809  1
  O  O65  1  0.53426951  0.85639542  0.98392034  1
  Cr  Cr66  1  0.34553653  0.66349804  0.82533795  1
  F  F67  1  0.24996777  0.45885059  0.09763195  1
  O  O68  1  0.99520296  0.92171514  0.81407803  1
  F  F69  1  0.19149013  0.47802943  0.64513457  1
  P  P70  1  0.77085280  0.01987593  0.97252810  1
