# generated using pymatgen
data_Cs2K5BaNaLiCa2U4GaCu7As2PRu2S24(ClO)6
_symmetry_space_group_name_H-M   'P 1'
_cell_length_a   6.16562462
_cell_length_b   6.47381926
_cell_length_c   7.14673281
_cell_angle_alpha   115.88598633
_cell_angle_beta   99.69436646
_cell_angle_gamma   91.25775909
_symmetry_Int_Tables_number   1
_chemical_formula_structural   Cs2K5BaNaLiCa2U4GaCu7As2PRu2S24(ClO)6
_chemical_formula_sum
'Cs2 K5 Ba1 Na1 Li1 Ca2 U4 Ga1 Cu7 As2 P1 Ru2 S24 Cl6 O6'
_cell_volume   251.50592218
_cell_formula_units_Z   1
loop_
 _symmetry_equiv_pos_site_id
 _symmetry_equiv_pos_as_xyz
  1  'x, y, z'
loop_
 _atom_site_type_symbol
 _atom_site_label
 _atom_site_symmetry_multiplicity
 _atom_site_fract_x
 _atom_site_fract_y
 _atom_site_fract_z
 _atom_site_occupancy
  O  O0  1  0.14384787  0.54973626  0.37507072  1
  K  K1  1  0.78555363  0.67338735  0.18216464  1
  O  O2  1  0.42734119  0.85108137  0.29226634  1
  O  O3  1  0.09566192  0.01532397  0.49182555  1
  O  O4  1  0.60380173  0.23508424  0.01564077  1
  As  As5  1  0.70184195  0.00489998  0.81068420  1
  Cs  Cs6  1  0.73394251  0.32745594  0.46917063  1
  K  K7  1  0.22123718  0.11540399  0.12139171  1
  As  As8  1  0.26918817  0.81413960  0.45351043  1
  O  O9  1  0.43760970  0.84481329  0.68979764  1
  Cs  Cs10  1  0.25711370  0.49327293  0.82870424  1
  O  O11  1  0.84448707  0.81975114  0.88781738  1
  K  K12  1  0.25251678  0.73386240  0.18793428  1
  S  S13  1  0.68885052  0.29134050  0.67430651  1
  S  S14  1  0.20984235  0.78919917  0.68658197  1
  S  S15  1  0.13450581  0.25184178  0.62757039  1
  U  U16  1  0.44688424  0.23307021  0.87307584  1
  S  S17  1  0.70548773  0.69037157  0.10967135  1
  U  U18  1  0.72567570  0.52093202  0.43730333  1
  Cu  Cu19  1  0.43121773  0.63582814  0.76250327  1
  S  S20  1  0.25000376  0.21836381  0.14387956  1
  Cu  Cu21  1  0.97738343  0.10434796  0.26509976  1
  S  S22  1  0.68536460  0.79744399  0.62843025  1
  S  S23  1  0.76206994  0.24381061  0.18358417  1
  Cl  Cl24  1  0.94111490  0.25772691  0.97554612  1
  K  K25  1  0.93091285  0.77640879  0.48292112  1
  Cl  Cl26  1  0.41264787  0.78475231  0.50109613  1
  Cl  Cl27  1  0.93923402  0.78136677  0.97841585  1
  Na  Na28  1  0.68140483  0.51696706  0.23952544  1
  Cl  Cl29  1  0.94405508  0.25792223  0.49859262  1
  K  K30  1  0.43069291  0.27029341  0.98588651  1
  Cl  Cl31  1  0.41970840  0.25826156  0.49430805  1
  Cl  Cl32  1  0.42317277  0.78001362  0.97760201  1
  Cu  Cu33  1  0.18149190  0.02205401  0.73608071  1
  U  U34  1  0.90328109  0.41117671  0.38572824  1
  S  S35  1  0.68253124  0.13376153  0.38248104  1
  S  S36  1  0.20246623  0.96557748  0.78210104  1
  Ca  Ca37  1  0.32850939  0.55134410  0.87236857  1
  S  S38  1  0.14145073  0.23933309  0.07497577  1
  Ru  Ru39  1  0.33209211  0.75927192  0.32064423  1
  S  S40  1  0.58790648  0.70324475  0.51760203  1
  S  S41  1  0.04053523  0.75437480  0.17259598  1
  S  S42  1  0.15772000  0.03253072  0.49210471  1
  S  S43  1  0.46964321  0.00253071  0.09553996  1
  S  S44  1  0.08827291  0.59343994  0.58751953  1
  S  S45  1  0.73255873  0.27258241  0.77953362  1
  S  S46  1  0.64075649  0.62168080  0.07238890  1
  U  U47  1  0.73066235  0.90965146  0.73398489  1
  Ru  Ru48  1  0.85794157  0.06483862  0.05184735  1
  S  S49  1  0.75943571  0.15619072  0.37814617  1
  S  S50  1  0.70045614  0.71636409  0.61415040  1
  Cu  Cu51  1  0.21448520  0.71865755  0.64024955  1
  Cu  Cu52  1  0.14354390  0.35882777  0.97863424  1
  Li  Li53  1  0.68339539  0.14115837  0.54727471  1
  Cu  Cu54  1  0.61552233  0.54072440  0.45169169  1
  Cu  Cu55  1  0.12146546  0.05337913  0.45230368  1
  S  S56  1  0.87189925  0.54763091  0.93289065  1
  P  P57  1  0.38263118  0.79220742  0.37558198  1
  Ga  Ga58  1  0.25104600  0.88543755  0.92356157  1
  Ca  Ca59  1  0.69601709  0.36376187  0.74365622  1
  Ba  Ba60  1  0.78703547  0.88454658  0.15172854  1
  S  S61  1  0.19216111  0.57863486  0.24617496  1
  S  S62  1  0.19178702  0.19496712  0.60823190  1
  S  S63  1  0.42336443  0.83969808  0.80122232  1
  S  S64  1  0.39389682  0.19125949  0.06328166  1
