# generated using pymatgen
data_Cs2K4BaNaLi2Ca3TbU5Cu4Ag3BAsRhSeS22Cl6O7
_symmetry_space_group_name_H-M   'P 1'
_cell_length_a   6.16562462
_cell_length_b   6.47381926
_cell_length_c   7.14673281
_cell_angle_alpha   115.88598633
_cell_angle_beta   99.69436646
_cell_angle_gamma   91.25775909
_symmetry_Int_Tables_number   1
_chemical_formula_structural
Cs2K4BaNaLi2Ca3TbU5Cu4Ag3BAsRhSeS22Cl6O7
_chemical_formula_sum
'Cs2 K4 Ba1 Na1 Li2 Ca3 Tb1 U5 Cu4 Ag3 B1 As1 Rh1 Se1 S22 Cl6 O7'
_cell_volume   251.50592218
_cell_formula_units_Z   1
loop_
 _symmetry_equiv_pos_site_id
 _symmetry_equiv_pos_as_xyz
  1  'x, y, z'
loop_
 _atom_site_type_symbol
 _atom_site_label
 _atom_site_symmetry_multiplicity
 _atom_site_fract_x
 _atom_site_fract_y
 _atom_site_fract_z
 _atom_site_occupancy
  O  O0  1  0.83804792  0.01371541  0.06116963  1
  K  K1  1  0.07840938  0.62293923  0.85895091  1
  Cs  Cs2  1  0.75985569  0.96604562  0.54162574  1
  Cs  Cs3  1  0.41071925  0.27675581  0.17869356  1
  K  K4  1  0.57904786  0.61813700  0.85774690  1
  O  O5  1  0.83557671  0.42621872  0.05828308  1
  O  O6  1  0.79738367  0.44156438  0.49368161  1
  O  O7  1  0.35094175  0.80301648  0.23319003  1
  Se  Se8  1  0.93666393  0.31201822  0.22548583  1
  O  O9  1  0.31928977  0.80802649  0.65866768  1
  As  As10  1  0.23408699  0.93048042  0.49007839  1
  O  O11  1  0.30687568  0.23024254  0.65754616  1
  U  U12  1  0.24848843  0.00908185  0.90186948  1
  Li  Li13  1  0.25324243  0.00956007  0.40281790  1
  Ag  Ag14  1  0.91368604  0.33581978  0.90096629  1
  S  S15  1  0.41762337  0.84675258  0.15765131  1
  Ag  Ag16  1  0.57862413  0.67904258  0.40133277  1
  S  S17  1  0.06155306  0.14332370  0.14100221  1
  U  U18  1  0.57938957  0.67553657  0.90312350  1
  S  S19  1  0.75195730  0.52978629  0.65744501  1
  S  S20  1  0.72869229  0.49826652  0.14647105  1
  S  S21  1  0.39684048  0.83737737  0.64499617  1
  S  S22  1  0.10576233  0.18760857  0.65835690  1
  Ag  Ag23  1  0.91990089  0.34482917  0.41175398  1
  Cl  Cl24  1  0.46497881  0.78569072  0.87172604  1
  Tb  Tb25  1  0.21568327  0.53711402  0.11868513  1
  Cl  Cl26  1  0.96542716  0.78393686  0.87273777  1
  Cl  Cl27  1  0.96712834  0.78147238  0.36691904  1
  Cl  Cl28  1  0.46668386  0.29085088  0.36303478  1
  K  K29  1  0.46243554  0.78505790  0.36682248  1
  K  K30  1  0.96467906  0.28895873  0.86789548  1
  Na  Na31  1  0.71624941  0.03854873  0.61496747  1
  Cl  Cl32  1  0.45884949  0.29081917  0.87130833  1
  Cl  Cl33  1  0.96437275  0.29261875  0.36469698  1
  S  S34  1  0.23469052  0.39841798  0.95066011  1
  S  S35  1  0.46209812  0.92792803  0.01368114  1
  S  S36  1  0.49217755  0.74776566  0.67490309  1
  S  S37  1  0.19637316  0.49881566  0.54093957  1
  S  S38  1  0.98704278  0.75540578  0.16606092  1
  U  U39  1  0.96769947  0.13742323  0.15729921  1
  Ca  Ca40  1  0.49461210  0.15369855  0.66958666  1
  S  S41  1  0.99593908  0.93612182  0.47719431  1
  S  S42  1  0.95964903  0.09764406  0.82018113  1
  U  U43  1  0.49024129  0.73782820  0.33282369  1
  Rh  Rh44  1  0.22876565  0.44057366  0.23954663  1
  U  U45  1  0.94586486  0.73514926  0.81586468  1
  S  S46  1  0.64767540  0.48366565  0.05816521  1
  S  S47  1  0.81686455  0.39511317  0.40298867  1
  S  S48  1  0.47209200  0.12319463  0.31684244  1
  Cu  Cu49  1  0.34178558  0.97204721  0.92327571  1
  S  S50  1  0.64817047  0.24520080  0.02132789  1
  S  S51  1  0.72753799  0.58736026  0.48381856  1
  S  S52  1  0.72098958  0.79389888  0.31718013  1
  S  S53  1  0.13929281  0.79611361  0.13544282  1
  O  O54  1  0.31819308  0.41115215  0.34068999  1
  Ca  Ca55  1  0.94824052  0.33277696  0.20002867  1
  S  S56  1  0.40079486  0.12138896  0.69107401  1
  S  S57  1  0.01798052  0.68099159  0.83698428  1
  Cu  Cu58  1  0.40200645  0.51986152  0.07965831  1
  Li  Li59  1  0.84339130  0.71090782  0.98791116  1
  Ba  Ba60  1  0.22652286  0.09934848  0.48067814  1
  Cu  Cu61  1  0.36811584  0.64306998  0.73896825  1
  Ca  Ca62  1  0.92208999  0.11845334  0.75640565  1
  Cu  Cu63  1  0.44372988  0.04972215  0.25858292  1
  B  B64  1  0.57923830  0.56943041  0.37839726  1
