# generated using pymatgen
data_K3Rb2Na3SrLi7CaYbMgU2TiMn2Fe2CuSiAgSbO22F21
_symmetry_space_group_name_H-M   'P 1'
_cell_length_a   4.87255812
_cell_length_b   6.16130209
_cell_length_c   8.69777489
_cell_angle_alpha   82.62377167
_cell_angle_beta   85.96931458
_cell_angle_gamma   85.10387421
_symmetry_Int_Tables_number   1
_chemical_formula_structural
K3Rb2Na3SrLi7CaYbMgU2TiMn2Fe2CuSiAgSbO22F21
_chemical_formula_sum
'K3 Rb2 Na3 Sr1 Li7 Ca1 Yb1 Mg1 U2 Ti1 Mn2 Fe2 Si1 Cu1 Ag1 Sb1 O22 F21'
_cell_volume   257.54715254
_cell_formula_units_Z   1
loop_
 _symmetry_equiv_pos_site_id
 _symmetry_equiv_pos_as_xyz
  1  'x, y, z'
loop_
 _atom_site_type_symbol
 _atom_site_label
 _atom_site_symmetry_multiplicity
 _atom_site_fract_x
 _atom_site_fract_y
 _atom_site_fract_z
 _atom_site_occupancy
  U  U0  1  0.66177756  0.47600049  0.05446526  1
  O  O1  1  0.78452146  0.68265682  0.80859905  1
  O  O2  1  0.65769202  0.20561516  0.61361420  1
  Li  Li3  1  0.29544944  0.61880249  0.30653876  1
  Li  Li4  1  0.02201662  0.38413581  0.81307632  1
  O  O5  1  0.48825577  0.76339060  0.10575319  1
  Li  Li6  1  0.44900015  0.58490866  0.67365503  1
  O  O7  1  0.83066756  0.19288339  0.01466270  1
  O  O8  1  0.51815802  0.30120647  0.30695587  1
  O  O9  1  0.11009194  0.46684614  0.55921620  1
  Ti  Ti10  1  0.84116471  0.40051264  0.44367391  1
  O  O11  1  0.94198751  0.57120943  0.22973204  1
  Li  Li12  1  0.79314369  0.91864580  0.23807162  1
  Mn  Mn13  1  0.35751566  0.13581251  0.49483606  1
  O  O14  1  0.36420214  0.38372135  0.90044683  1
  Ca  Ca15  1  0.51305568  0.02661526  0.87554431  1
  O  O16  1  0.01773848  0.08413360  0.40301239  1
  O  O17  1  0.24405663  0.90776581  0.66632384  1
  O  O18  1  0.66761434  0.71141726  0.46968102  1
  Mn  Mn19  1  0.91438419  0.83601046  0.59723073  1
  O  O20  1  0.92193979  0.55853403  0.25051016  1
  O  O21  1  0.92665130  0.62881351  0.71887916  1
  F  F22  1  0.56410879  0.87704980  0.56986898  1
  O  O23  1  0.30320030  0.51792181  0.88394451  1
  O  O24  1  0.18168132  0.18447502  0.84079808  1
  Sb  Sb25  1  0.74486142  0.96377593  0.65005362  1
  Na  Na26  1  0.72300822  0.46480843  0.14322525  1
  F  F27  1  0.32681859  0.76019347  0.45121008  1
  Si  Si28  1  0.19614050  0.45049107  0.17017472  1
  O  O29  1  0.28960571  0.53173101  0.28434670  1
  Fe  Fe30  1  0.23761821  0.97520113  0.14581060  1
  Fe  Fe31  1  0.24641255  0.46474615  0.64438289  1
  O  O32  1  0.91910714  0.03266467  0.30783314  1
  O  O33  1  0.56616610  0.28991878  0.55380380  1
  Li  Li34  1  0.21699661  0.00617489  0.62947351  1
  O  O35  1  0.89449751  0.05689092  0.74235773  1
  O  O36  1  0.55211180  0.87327260  0.97614622  1
  O  O37  1  0.27277729  0.17845316  0.25934988  1
  Na  Na38  1  0.71358407  0.46281302  0.65372699  1
  Na  Na39  1  0.72147268  0.94921923  0.16067320  1
  F  F40  1  0.50805527  0.12633941  0.99157423  1
  F  F41  1  0.02040200  0.12161222  0.48232609  1
  F  F42  1  0.02051587  0.61232114  0.47886097  1
  Sr  Sr43  1  0.26717740  0.36711532  0.23904330  1
  K  K44  1  0.76704144  0.86570597  0.73821890  1
  F  F45  1  0.50583094  0.12631138  0.47920212  1
  Rb  Rb46  1  0.52133250  0.61730039  0.48298222  1
  F  F47  1  0.50342923  0.61118484  0.99882591  1
  Rb  Rb48  1  0.01297696  0.11514801  0.99154973  1
  F  F49  1  0.02562376  0.60835207  0.99163389  1
  Mg  Mg50  1  0.34993735  0.11116376  0.84236360  1
  Yb  Yb51  1  0.24510615  0.77410281  0.50056362  1
  F  F52  1  0.00770797  0.16115668  0.36741614  1
  F  F53  1  0.99397558  0.64999497  0.87348223  1
  Li  Li54  1  0.12222746  0.47739199  0.15688951  1
  Li  Li55  1  0.84640431  0.34816796  0.57189149  1
  F  F56  1  0.48993486  0.41802406  0.10974473  1
  F  F57  1  0.00706797  0.17893448  0.82179326  1
  F  F58  1  0.98435891  0.63462174  0.37460205  1
  O  O59  1  0.46538755  0.91273898  0.12673122  1
  Cu  Cu60  1  0.63201582  0.70511514  0.97924811  1
  F  F61  1  0.48259082  0.40001407  0.62304139  1
  F  F62  1  0.48976716  0.90702158  0.65756965  1
  Ag  Ag63  1  0.74512935  0.04024079  0.22419550  1
  F  F64  1  0.98664230  0.56557679  0.83923280  1
  K  K65  1  0.50221390  0.58792591  0.87140417  1
  K  K66  1  0.44659480  0.04626964  0.41098052  1
  F  F67  1  0.93230450  0.04195595  0.91502857  1
  F  F68  1  0.01684127  0.58810002  0.37307698  1
  F  F69  1  0.42532679  0.06107946  0.90503323  1
  U  U70  1  0.97600234  0.81545669  0.64135879  1
  F  F71  1  0.52543318  0.57278693  0.37426043  1
  F  F72  1  0.95411336  0.05964451  0.43719578  1
