# generated using pymatgen
data_K3RbTbU8GaSi2Ni2Te10Mo2As2P4PtRh2BrCl3
_symmetry_space_group_name_H-M   'P 1'
_cell_length_a   4.07229900
_cell_length_b   4.32061529
_cell_length_c   4.85554743
_cell_angle_alpha   93.07030487
_cell_angle_beta   88.81633759
_cell_angle_gamma   97.76748657
_symmetry_Int_Tables_number   1
_chemical_formula_structural   K3RbTbU8GaSi2Ni2Te10Mo2As2P4PtRh2BrCl3
_chemical_formula_sum
'K3 Rb1 Tb1 U8 Ga1 Si2 Ni2 Te10 Mo2 As2 P4 Pt1 Rh2 Br1 Cl3'
_cell_volume   84.51941569
_cell_formula_units_Z   1
loop_
 _symmetry_equiv_pos_site_id
 _symmetry_equiv_pos_as_xyz
  1  'x, y, z'
loop_
 _atom_site_type_symbol
 _atom_site_label
 _atom_site_symmetry_multiplicity
 _atom_site_fract_x
 _atom_site_fract_y
 _atom_site_fract_z
 _atom_site_occupancy
  Ni  Ni0  1  0.72451413  0.33741522  0.53708375  1
  Ni  Ni1  1  0.22445562  0.84031165  0.53454840  1
  Si  Si2  1  0.22724143  0.34375602  0.78698975  1
  Si  Si3  1  0.22283147  0.33579308  0.27223480  1
  Tb  Tb4  1  0.72673088  0.84536064  0.03097739  1
  Br  Br5  1  0.82239854  0.74652970  0.83857346  1
  As  As6  1  0.31958872  0.33546737  0.19898614  1
  K  K7  1  0.33336478  0.83224952  0.12781374  1
  K  K8  1  0.31635490  0.65157443  0.54866028  1
  Pt  Pt9  1  0.82683873  0.24391633  0.33841428  1
  As  As10  1  0.32244062  0.15141186  0.47709012  1
  K  K11  1  0.82100409  0.24442875  0.83867127  1
  Ga  Ga12  1  0.21780029  0.51919597  0.74427634  1
  Rb  Rb13  1  0.71681052  0.02106246  0.24114828  1
  Cl  Cl14  1  0.22209816  0.02130167  0.65305829  1
  Cl  Cl15  1  0.71993709  0.52089167  0.66917056  1
  Cl  Cl16  1  0.22617297  0.51872188  0.12391254  1
  Rh  Rh17  1  0.32814962  0.69070500  0.95215148  1
  P  P18  1  0.62846607  0.66550499  0.65180427  1
  U  U19  1  0.13190554  0.90639961  0.44496593  1
  P  P20  1  0.13743252  0.39485005  0.20828612  1
  Mo  Mo21  1  0.57779801  0.16966160  0.78523391  1
  Rh  Rh22  1  0.08120928  0.40320867  0.60969210  1
  P  P23  1  0.03337574  0.08413775  0.96439892  1
  Mo  Mo24  1  0.62981260  0.39497882  0.29491100  1
  P  P25  1  0.66666269  0.89332527  0.16103025  1
  Te  Te26  1  0.48444957  0.43989113  0.12454497  1
  U  U27  1  0.23569269  0.10791864  0.84593332  1
  U  U28  1  0.23037431  0.49354661  0.45646966  1
  Te  Te29  1  0.48509973  0.77538377  0.79101562  1
  Te  Te30  1  0.98858565  0.77100813  0.78983223  1
  Te  Te31  1  0.24379130  0.84165269  0.45640665  1
  Te  Te32  1  0.24153611  0.10738224  0.18933564  1
  Te  Te33  1  0.73291135  0.83368182  0.18365812  1
  U  U34  1  0.73568571  0.10459615  0.06880982  1
  U  U35  1  0.73483819  0.49143308  0.84006137  1
  U  U36  1  0.98755616  0.10378910  0.45594728  1
  U  U37  1  0.74166900  0.71499723  0.45246857  1
  Te  Te38  1  0.23687315  0.37540707  0.72674704  1
  Te  Te39  1  0.73067474  0.10518145  0.72603017  1
  U  U40  1  0.23174196  0.72179705  0.07257332  1
  Te  Te41  1  0.98922968  0.43794504  0.12231499  1
  Te  Te42  1  0.73023343  0.37062019  0.45783761  1
