# generated using pymatgen
data_LiYbY3Ho2MgTiVZnCrFe3Co8Re2Ag2H2N7O19F12
_symmetry_space_group_name_H-M   'P 1'
_cell_length_a   5.77787256
_cell_length_b   5.78773308
_cell_length_c   6.32254696
_cell_angle_alpha   106.57270813
_cell_angle_beta   83.77281189
_cell_angle_gamma   88.57794189
_symmetry_Int_Tables_number   1
_chemical_formula_structural
LiYbY3Ho2MgTiVZnCrFe3Co8Re2Ag2H2N7O19F12
_chemical_formula_sum
'Li1 Yb1 Y3 Ho2 Mg1 Ti1 V1 Zn1 Cr1 Fe3 Co8 Re2 Ag2 H2 N7 O19 F12'
_cell_volume   201.10685677
_cell_formula_units_Z   1
loop_
 _symmetry_equiv_pos_site_id
 _symmetry_equiv_pos_as_xyz
  1  'x, y, z'
loop_
 _atom_site_type_symbol
 _atom_site_label
 _atom_site_symmetry_multiplicity
 _atom_site_fract_x
 _atom_site_fract_y
 _atom_site_fract_z
 _atom_site_occupancy
  Ho  Ho0  1  0.10337378  0.37203875  0.72683197  1
  Mg  Mg1  1  0.80020517  0.92561466  0.90443665  1
  N  N2  1  0.46475080  0.15859297  0.80277413  1
  N  N3  1  0.76740068  0.58182448  0.65520692  1
  Ho  Ho4  1  0.25143710  0.06834767  0.13975869  1
  N  N5  1  0.32235992  0.42563334  0.37080094  1
  N  N6  1  0.89527690  0.28260592  0.07374881  1
  N  N7  1  0.16594458  0.72283053  0.95007157  1
  Y  Y8  1  0.53656918  0.50578463  0.00930308  1
  N  N9  1  0.61430293  0.86154532  0.21367922  1
  Y  Y10  1  0.66699493  0.22092144  0.44095385  1
  Yb  Yb11  1  0.40767711  0.79105276  0.58081496  1
  H  H12  1  0.96443671  0.98419207  0.61355686  1
  N  N13  1  0.04919565  0.01451000  0.48766902  1
  Y  Y14  1  0.96429825  0.64068419  0.28888258  1
  Fe  Fe15  1  0.53435826  0.82405365  0.54666990  1
  O  O16  1  0.85595167  0.90957409  0.72712255  1
  V  V17  1  0.52600682  0.34328294  0.55376172  1
  O  O18  1  0.35057554  0.11357196  0.65994936  1
  O  O19  1  0.25135553  0.43420294  0.00702949  1
  H  H20  1  0.60737795  0.63822740  0.06758827  1
  O  O21  1  0.26028132  0.95631492  0.98512524  1
  Re  Re22  1  0.02278943  0.49025342  0.23206386  1
  Fe  Fe23  1  0.03787751  0.99513227  0.22172825  1
  O  O24  1  0.22353411  0.74960136  0.34108362  1
  Fe  Fe25  1  0.05304722  0.65530086  0.83799815  1
  Re  Re26  1  0.06849586  0.14934742  0.85391670  1
  O  O27  1  0.86397588  0.34417731  0.72995365  1
  O  O28  1  0.40091968  0.60328960  0.68057615  1
  O  O29  1  0.82644677  0.23664726  0.07617983  1
  O  O30  1  0.22684103  0.29825142  0.34616831  1
  O  O31  1  0.74586511  0.53967053  0.41652867  1
  O  O32  1  0.80385906  0.68741906  0.09161690  1
  Ti  Ti33  1  0.74116588  0.36254653  0.29408318  1
  F  F34  1  0.23641409  0.85860634  0.79808217  1
  F  F35  1  0.02706960  0.36385277  0.09896470  1
  F  F36  1  0.54197282  0.36352295  0.01370848  1
  F  F37  1  0.44371486  0.36608645  0.48666844  1
  Zn  Zn38  1  0.23440564  0.36803129  0.80015397  1
  F  F39  1  0.93176085  0.36171177  0.58230716  1
  F  F40  1  0.73838764  0.86265850  0.29700303  1
  Li  Li41  1  0.43702316  0.76810312  0.07894325  1
  Cr  Cr42  1  0.82211572  0.39836910  0.55414236  1
  Ag  Ag43  1  0.15506199  0.46196017  0.88319522  1
  F  F44  1  0.53104544  0.61316025  0.41608772  1
  F  F45  1  0.15613303  0.24213333  0.62892568  1
  Ag  Ag46  1  0.62832832  0.02340935  0.32101262  1
  F  F47  1  0.53529590  0.08358232  0.93934590  1
  F  F48  1  0.93805379  0.17453445  0.35248178  1
  F  F49  1  0.08903122  0.72450095  0.13840500  1
  F  F50  1  0.69490981  0.58162689  0.81229514  1
  O  O51  1  0.37134928  0.96498573  0.81211716  1
  O  O52  1  0.86408699  0.21607552  0.18548311  1
  Co  Co53  1  0.11118279  0.84009254  0.62025696  1
  Co  Co54  1  0.61976391  0.59467453  0.25056863  1
  O  O55  1  0.36551780  0.47010222  0.06707818  1
  Co  Co56  1  0.11288973  0.34109262  0.37344667  1
  Co  Co57  1  0.60688490  0.09655073  0.99793160  1
  Co  Co58  1  0.10867643  0.84377432  0.12942937  1
  O  O59  1  0.85618716  0.21197018  0.68509424  1
  O  O60  1  0.85996449  0.71673453  0.44149554  1
  Co  Co61  1  0.61154354  0.09630832  0.50201666  1
  Co  Co62  1  0.11023261  0.33787718  0.87577391  1
  O  O63  1  0.36490279  0.45917162  0.56248087  1
  O  O64  1  0.36166021  0.97175419  0.31341067  1
  O  O65  1  0.86702937  0.72336197  0.93736666  1
  Co  Co66  1  0.61276513  0.58946419  0.74999350  1
