# generated using pymatgen
data_Cs2K2BaNa5Sr2Li5PrMgTi2Mn2FeAg2BiBTeO19F25
_symmetry_space_group_name_H-M   'P 1'
_cell_length_a   4.87255812
_cell_length_b   6.16130209
_cell_length_c   8.69777489
_cell_angle_alpha   82.62377167
_cell_angle_beta   85.96931458
_cell_angle_gamma   85.10387421
_symmetry_Int_Tables_number   1
_chemical_formula_structural
Cs2K2BaNa5Sr2Li5PrMgTi2Mn2FeAg2BiBTeO19F25
_chemical_formula_sum
'Cs2 K2 Ba1 Na5 Sr2 Li5 Pr1 Mg1 Ti2 Mn2 Fe1 Ag2 Bi1 B1 Te1 O19 F25'
_cell_volume   257.54715254
_cell_formula_units_Z   1
loop_
 _symmetry_equiv_pos_site_id
 _symmetry_equiv_pos_as_xyz
  1  'x, y, z'
loop_
 _atom_site_type_symbol
 _atom_site_label
 _atom_site_symmetry_multiplicity
 _atom_site_fract_x
 _atom_site_fract_y
 _atom_site_fract_z
 _atom_site_occupancy
  Ti  Ti0  1  0.31636131  0.68652117  0.22322553  1
  Li  Li1  1  0.32540786  0.31716570  0.06604064  1
  Mn  Mn2  1  0.33159515  0.96855044  0.90044045  1
  Ti  Ti3  1  0.83183277  0.11747898  0.76905960  1
  O  O4  1  0.24561481  0.67532951  0.00027871  1
  O  O5  1  0.11938075  0.40535948  0.27491811  1
  O  O6  1  0.49969488  0.71156371  0.41372907  1
  Na  Na7  1  0.25124273  0.08044446  0.44608420  1
  O  O8  1  0.98874670  0.82084221  0.30597448  1
  O  O9  1  0.64256406  0.85351062  0.79715621  1
  O  O10  1  0.01890002  0.15031579  0.96284169  1
  Na  Na11  1  0.84059584  0.55684441  0.95286226  1
  Li  Li12  1  0.79126197  0.08958012  0.16750903  1
  Mn  Mn13  1  0.81139868  0.52856112  0.37201765  1
  O  O14  1  0.15133078  0.95523202  0.70984334  1
  O  O15  1  0.50265211  0.25335297  0.84553295  1
  O  O16  1  0.61750317  0.43009338  0.19928549  1
  O  O17  1  0.44791546  0.96729124  0.12060078  1
  Na  Na18  1  0.40319952  0.58860564  0.69016445  1
  O  O19  1  0.83244699  0.33540943  0.57421499  1
  F  F20  1  0.95369565  0.93537867  0.88518882  1
  F  F21  1  0.98196530  0.22801806  0.49498522  1
  Te  Te22  1  0.90225166  0.53158027  0.56638503  1
  B  B23  1  0.43553969  0.25546283  0.37936223  1
  F  F24  1  0.57789671  0.78005373  0.02143013  1
  O  O25  1  0.87320966  0.79591012  0.60426021  1
  F  F26  1  0.86511326  0.65693003  0.27717662  1
  O  O27  1  0.53582191  0.15987460  0.16778213  1
  O  O28  1  0.62006330  0.30785045  0.36184275  1
  F  F29  1  0.39031067  0.07575343  0.61469138  1
  O  O30  1  0.91984630  0.37591234  0.85560882  1
  Li  Li31  1  0.91267890  0.62277228  0.96101284  1
  Ba  Ba32  1  0.33139366  0.78604990  0.45210886  1
  O  O33  1  0.23476671  0.46153918  0.38818347  1
  F  F34  1  0.24228051  0.45987153  0.86492825  1
  Pr  Pr35  1  0.60481632  0.14230563  0.76760364  1
  O  O36  1  0.61246985  0.53125811  0.69415164  1
  Fe  Fe37  1  0.83802205  0.15415889  0.09019798  1
  Na  Na38  1  0.31919098  0.68409950  0.98996419  1
  F  F39  1  0.10652529  0.00063539  0.14559317  1
  F  F40  1  0.47170773  0.77629519  0.83480829  1
  F  F41  1  0.97142673  0.77718139  0.33211637  1
  Cs  Cs42  1  0.47229102  0.77489489  0.33246928  1
  Cs  Cs43  1  0.97115338  0.27883491  0.83308589  1
  F  F44  1  0.96851218  0.77846426  0.83676863  1
  Sr  Sr45  1  0.22001910  0.52682000  0.08539730  1
  F  F46  1  0.97097385  0.27686563  0.33538115  1
  F  F47  1  0.47299409  0.27774712  0.83263981  1
  Sr  Sr48  1  0.72244781  0.03047894  0.58487356  1
  F  F49  1  0.47393262  0.27506471  0.33663851  1
  F  F50  1  0.64966518  0.16594228  0.77361834  1
  Mg  Mg51  1  0.41072154  0.49453107  0.72525978  1
  O  O52  1  0.25162381  0.35567978  0.05977064  1
  F  F53  1  0.64676934  0.65738708  0.79182005  1
  F  F54  1  0.17989476  0.34412262  0.63924229  1
  Ag  Ag55  1  0.38780829  0.00682395  0.21467912  1
  Li  Li56  1  0.35442808  0.98832101  0.75996238  1
  Li  Li57  1  0.82814980  0.93714499  0.61820757  1
  F  F58  1  0.17023608  0.82086509  0.64791620  1
  F  F59  1  0.59112090  0.62772483  0.38240317  1
  O  O60  1  0.17432179  0.90646821  0.08090556  1
  F  F61  1  0.64476216  0.08867409  0.37242645  1
  Ag  Ag62  1  0.06972763  0.56253833  0.28823441  1
  Na  Na63  1  0.88858366  0.26880723  0.98579746  1
  F  F64  1  0.82625633  0.59163100  0.28891981  1
  Bi  Bi65  1  0.05414225  0.36028299  0.29002842  1
  F  F66  1  0.29201216  0.13488542  0.29557922  1
  K  K67  1  0.29564241  0.10627043  0.79340953  1
  F  F68  1  0.32976443  0.63759542  0.29079443  1
  K  K69  1  0.81125748  0.61689198  0.79159385  1
  F  F70  1  0.29209536  0.58914590  0.74924934  1
  F  F71  1  0.77601230  0.07702560  0.28948307  1
  F  F72  1  0.82421124  0.13000186  0.83019781  1
