# generated using pymatgen
data_CsBa4LiLa2Gd2Tm2BeAlGa4Sn2B2PPt2Pb3(S9N)2
_symmetry_space_group_name_H-M   'P 1'
_cell_length_a   5.11456823
_cell_length_b   5.07620716
_cell_length_c   7.05868673
_cell_angle_alpha   70.18124390
_cell_angle_beta   69.13948822
_cell_angle_gamma   60.55068588
_symmetry_Int_Tables_number   1
_chemical_formula_structural
CsBa4LiLa2Gd2Tm2BeAlGa4Sn2B2PPt2Pb3(S9N)2
_chemical_formula_sum
'Cs1 Ba4 Li1 La2 Gd2 Tm2 Be1 Al1 Ga4 Sn2 B2 P1 Pt2 Pb3 S18 N2'
_cell_volume   146.06315454
_cell_formula_units_Z   1
loop_
 _symmetry_equiv_pos_site_id
 _symmetry_equiv_pos_as_xyz
  1  'x, y, z'
loop_
 _atom_site_type_symbol
 _atom_site_label
 _atom_site_symmetry_multiplicity
 _atom_site_fract_x
 _atom_site_fract_y
 _atom_site_fract_z
 _atom_site_occupancy
  Gd  Gd0  1  0.02844595  0.42349929  0.72805393  1
  S  S1  1  0.65628481  0.05595573  0.84205502  1
  Pt  Pt2  1  0.28229529  0.67331737  0.97522449  1
  S  S3  1  0.90087318  0.29182708  0.10847563  1
  Pt  Pt4  1  0.78026378  0.17268109  0.47181728  1
  S  S5  1  0.39985633  0.78911841  0.61276293  1
  Gd  Gd6  1  0.53147703  0.92576152  0.22474831  1
  S  S7  1  0.16013725  0.55311418  0.34321451  1
  S  S8  1  0.24207957  0.14593679  0.48527098  1
  S  S9  1  0.61056328  0.54348791  0.68371499  1
  Cs  Cs10  1  0.35363579  0.09988765  0.92096466  1
  S  S11  1  0.33268523  0.61808306  0.30391186  1
  S  S12  1  0.72626996  0.13929570  0.21080279  1
  Al  Al13  1  0.28726155  0.76279283  0.57808477  1
  B  B14  1  0.44569683  0.29534134  0.33017275  1
  S  S15  1  0.99458426  0.71556592  0.80263388  1
  B  B16  1  0.80092263  0.64167601  0.72889715  1
  Ba  Ba17  1  0.84978276  0.59087414  0.27007511  1
  Be  Be18  1  0.27809167  0.42617679  0.41692546  1
  S  S19  1  0.45494026  0.04475640  0.92870498  1
  La  La20  1  0.45116371  0.00304254  0.59731936  1
  S  S21  1  0.11304910  0.32795459  0.64450049  1
  P  P22  1  0.85480464  0.58087206  0.31574899  1
  Li  Li23  1  0.48920968  0.99421233  0.21855682  1
  S  S24  1  0.79293317  0.76314676  0.12575530  1
  N  N25  1  0.56671369  0.35424480  0.38454017  1
  N  N26  1  0.16091600  0.62583095  0.32132667  1
  La  La27  1  0.12765595  0.39266500  0.99624884  1
  Ga  Ga28  1  0.61239719  0.82973248  0.24304694  1
  Ga  Ga29  1  0.60690296  0.32811570  0.99295616  1
  Ga  Ga30  1  0.60954833  0.82665110  0.74296051  1
  Tm  Tm31  1  0.11372123  0.82501727  0.49156582  1
  Sn  Sn32  1  0.10832834  0.33423349  0.24343602  1
  Tm  Tm33  1  0.11116212  0.82554871  0.99456316  1
  Ga  Ga34  1  0.61284548  0.32691193  0.49367860  1
  Sn  Sn35  1  0.10864977  0.32829469  0.74168169  1
  Ba  Ba36  1  0.81743205  0.31648296  0.81728137  1
  S  S37  1  0.53312552  0.76567233  0.83577752  1
  S  S38  1  0.23774195  0.17058645  0.31200248  1
  Pb  Pb39  1  0.55328619  0.81017202  0.65757418  1
  Pb  Pb40  1  0.05443033  0.80237836  0.97862095  1
  Pb  Pb41  1  0.54384071  0.79809809  0.30660546  1
  S  S42  1  0.53275919  0.77425849  0.12261604  1
  Ba  Ba43  1  0.81733483  0.32864055  0.14467412  1
  S  S44  1  0.27554300  0.25350168  0.97898829  1
  S  S45  1  0.23565933  0.16501662  0.65353483  1
  Ba  Ba46  1  0.81711209  0.32267863  0.48242602  1
  S  S47  1  0.52128369  0.73845333  0.48296019  1
