# generated using pymatgen
data_K5Ba2Na2Li2CaErUNb2Fe2Cu3Ag2As2HRu3S23Cl6O7
_symmetry_space_group_name_H-M   'P 1'
_cell_length_a   6.16562462
_cell_length_b   6.47381926
_cell_length_c   7.14673281
_cell_angle_alpha   115.88598633
_cell_angle_beta   99.69436646
_cell_angle_gamma   91.25775909
_symmetry_Int_Tables_number   1
_chemical_formula_structural
K5Ba2Na2Li2CaErUNb2Fe2Cu3Ag2As2HRu3S23Cl6O7
_chemical_formula_sum
'K5 Ba2 Na2 Li2 Ca1 Er1 U1 Nb2 Fe2 Cu3 Ag2 As2 Ru3 H1 S23 Cl6 O7'
_cell_volume   251.50592218
_cell_formula_units_Z   1
loop_
 _symmetry_equiv_pos_site_id
 _symmetry_equiv_pos_as_xyz
  1  'x, y, z'
loop_
 _atom_site_type_symbol
 _atom_site_label
 _atom_site_symmetry_multiplicity
 _atom_site_fract_x
 _atom_site_fract_y
 _atom_site_fract_z
 _atom_site_occupancy
  K  K0  1  0.73328626  0.92996836  0.65473819  1
  As  As1  1  0.23359887  0.41067579  0.61056256  1
  K  K2  1  0.10895129  0.71834576  0.22714320  1
  O  O3  1  0.49014190  0.38864547  0.57005787  1
  O  O4  1  0.55125523  0.71927488  0.24555948  1
  O  O5  1  0.07409380  0.14962158  0.52739912  1
  O  O6  1  0.73005837  0.35352600  0.96591794  1
  As  As7  1  0.60126418  0.60066390  0.00816676  1
  O  O8  1  0.74261749  0.80929261  0.97566324  1
  O  O9  1  0.30436972  0.54056221  0.87596619  1
  O  O10  1  0.07746816  0.59849596  0.53577280  1
  K  K11  1  0.69660342  0.24504244  0.28700787  1
  Li  Li12  1  0.11616991  0.63218319  0.51752836  1
  S  S13  1  0.30691910  0.48072749  0.77376670  1
  S  S14  1  0.59300268  0.11765935  0.75882941  1
  Er  Er15  1  0.77524972  0.96397060  0.01939282  1
  S  S16  1  0.62793511  0.15196531  0.26916164  1
  S  S17  1  0.92598629  0.77501261  0.75535035  1
  Ag  Ag18  1  0.11774290  0.62762475  0.01566353  1
  S  S19  1  0.26217467  0.43794659  0.25837025  1
  S  S20  1  0.96676463  0.81641304  0.27867520  1
  U  U21  1  0.45236415  0.29582012  0.51290268  1
  Li  Li22  1  0.44626546  0.29720894  0.01188073  1
  Ag  Ag23  1  0.78110272  0.96549088  0.51876020  1
  K  K24  1  0.37195557  0.40315697  0.28082931  1
  Na  Na25  1  0.61630023  0.65056926  0.53134739  1
  Cl  Cl26  1  0.88451463  0.39102662  0.78993130  1
  Cl  Cl27  1  0.35648152  0.39072746  0.79674464  1
  Cl  Cl28  1  0.35861686  0.91502190  0.79023188  1
  K  K29  1  0.87049121  0.90206021  0.78231823  1
  Cl  Cl30  1  0.36376804  0.90822560  0.26564914  1
  Cl  Cl31  1  0.88030088  0.39480856  0.26725817  1
  Cl  Cl32  1  0.88285530  0.91575885  0.26494753  1
  Cu  Cu33  1  0.12064841  0.14600526  0.03325985  1
  S  S34  1  0.98450142  0.46068650  0.57145500  1
  S  S35  1  0.93515664  0.02992097  0.15343894  1
  S  S36  1  0.26192725  0.96324915  0.76991773  1
  S  S37  1  0.74286997  0.70236444  0.96231037  1
  Nb  Nb38  1  0.23757268  0.71987641  0.57609242  1
  S  S39  1  0.57059038  0.47302383  0.37410483  1
  Na  Na40  1  0.49662012  0.11579672  0.99040747  1
  Ru  Ru41  1  0.65127307  0.71126527  0.70846629  1
  Ru  Ru42  1  0.97199613  0.23476470  0.36038467  1
  S  S43  1  0.42425847  0.46815258  0.77289110  1
  S  S44  1  0.37541544  0.98289418  0.35430884  1
  Nb  Nb45  1  0.78845888  0.75016260  0.34856093  1
  Ru  Ru46  1  0.13436981  0.71918046  0.97212362  1
  S  S47  1  0.82549542  0.98812437  0.56372726  1
  S  S48  1  0.17609358  0.47737935  0.19120458  1
  Ca  Ca49  1  0.15413749  0.58128411  0.14531714  1
  Cu  Cu50  1  0.43073609  0.63560468  0.69285566  1
  S  S51  1  0.21809910  0.19217217  0.26310238  1
  S  S52  1  0.08594678  0.97510803  0.02105987  1
  H  H53  1  0.65039700  0.08748239  0.14244635  1
  S  S54  1  0.71551341  0.70084637  0.26546213  1
  S  S55  1  0.16340138  0.07797821  0.64371538  1
  Ba  Ba56  1  0.00344414  0.32712758  0.86465734  1
  Fe  Fe57  1  0.57686961  0.96542734  0.01245574  1
  Ba  Ba58  1  0.31074101  0.84013909  0.42807406  1
  Fe  Fe59  1  0.71978992  0.19804923  0.27491558  1
  S  S60  1  0.49316564  0.81116825  0.85269415  1
  S  S61  1  0.58806378  0.47433892  0.02572732  1
  Cu  Cu62  1  0.91328418  0.50112844  0.59053016  1
  S  S63  1  0.81544173  0.34451711  0.43741208  1
  S  S64  1  0.69877464  0.04550783  0.63870865  1
