# generated using pymatgen
data_Cs2K4Ba2NaLi2CaErU5Fe2Cu2Ag2P2RuCS25(ClO)6
_symmetry_space_group_name_H-M   'P 1'
_cell_length_a   6.16562462
_cell_length_b   6.47381926
_cell_length_c   7.14673281
_cell_angle_alpha   115.88598633
_cell_angle_beta   99.69436646
_cell_angle_gamma   91.25775909
_symmetry_Int_Tables_number   1
_chemical_formula_structural
Cs2K4Ba2NaLi2CaErU5Fe2Cu2Ag2P2RuCS25(ClO)6
_chemical_formula_sum
'Cs2 K4 Ba2 Na1 Li2 Ca1 Er1 U5 Fe2 Cu2 Ag2 P2 Ru1 C1 S25 Cl6 O6'
_cell_volume   251.50592218
_cell_formula_units_Z   1
loop_
 _symmetry_equiv_pos_site_id
 _symmetry_equiv_pos_as_xyz
  1  'x, y, z'
loop_
 _atom_site_type_symbol
 _atom_site_label
 _atom_site_symmetry_multiplicity
 _atom_site_fract_x
 _atom_site_fract_y
 _atom_site_fract_z
 _atom_site_occupancy
  O  O0  1  0.78948355  0.51716530  0.67387748  1
  O  O1  1  0.25141189  0.32321170  0.28509721  1
  O  O2  1  0.73669410  0.91944695  0.07302007  1
  K  K3  1  0.51640093  0.11872943  0.47768351  1
  O  O4  1  0.29852608  0.32525614  0.87889099  1
  Cs  Cs5  1  0.28125641  0.78559256  0.81300962  1
  O  O6  1  0.24192537  0.72252560  0.27662346  1
  C  C7  1  0.76793468  0.78559858  0.79983580  1
  P  P8  1  0.26315519  0.45303258  0.15157437  1
  K  K9  1  0.00952348  0.12169507  0.48410359  1
  O  O10  1  0.77352500  0.91491330  0.67237884  1
  Cs  Cs11  1  0.76600760  0.45533547  0.14434765  1
  U  U12  1  0.30611953  0.94198281  0.46407074  1
  Li  Li13  1  0.47352701  0.77681863  0.96459574  1
  Ag  Ag14  1  0.63964891  0.60204548  0.46472606  1
  Li  Li15  1  0.96477175  0.27756417  0.46196049  1
  S  S16  1  0.91090685  0.88733929  0.18579876  1
  S  S17  1  0.22381335  0.53152233  0.20927319  1
  S  S18  1  0.35938978  0.33928844  0.74251288  1
  S  S19  1  0.52964187  0.16344330  0.24560115  1
  S  S20  1  0.08495857  0.71991140  0.68035799  1
  Er  Er21  1  0.13634971  0.10850902  0.95867503  1
  Ag  Ag22  1  0.80178875  0.44632247  0.97101074  1
  S  S23  1  0.72330356  0.03065555  0.71736163  1
  K  K24  1  0.67496389  0.72907078  0.11704427  1
  K  K25  1  0.16768850  0.23193461  0.62209702  1
  Cl  Cl26  1  0.18538038  0.24803703  0.10285334  1
  Cl  Cl27  1  0.65857595  0.24687193  0.63364309  1
  Cl  Cl28  1  0.18884829  0.71529478  0.10423642  1
  Cl  Cl29  1  0.65932757  0.71500474  0.63122535  1
  Cl  Cl30  1  0.18578243  0.71648401  0.63337094  1
  Cl  Cl31  1  0.66077542  0.24424806  0.10343122  1
  Cu  Cu32  1  0.41935721  0.48335123  0.86922503  1
  Na  Na33  1  0.92219019  0.98184365  0.36924887  1
  U  U34  1  0.87170172  0.25310251  0.12328663  1
  S  S35  1  0.88885605  0.59480685  0.15663013  1
  S  S36  1  0.65764564  0.85035586  0.77901912  1
  S  S37  1  0.19099970  0.34590244  0.78007853  1
  S  S38  1  0.04622759  0.98134291  0.88096404  1
  U  U39  1  0.88866633  0.58134395  0.53375244  1
  Ru  Ru40  1  0.62682271  0.15874226  0.82756793  1
  S  S41  1  0.86574328  0.91879117  0.32998922  1
  S  S42  1  0.84405524  0.23895057  0.51384628  1
  S  S43  1  0.36624086  0.41237658  0.32313398  1
  U  U44  1  0.35752600  0.07227130  0.53265822  1
  U  U45  1  0.35198092  0.74610502  0.11767322  1
  S  S46  1  0.38381118  0.08758286  0.14387377  1
  S  S47  1  0.34591323  0.73016548  0.49954185  1
  S  S48  1  0.57286227  0.47093394  0.87514585  1
  Fe  Fe49  1  0.63661432  0.50746632  0.77417153  1
  Cu  Cu50  1  0.84144449  0.77728325  0.07244419  1
  S  S51  1  0.12747025  0.48365158  0.75355148  1
  P  P52  1  0.49802125  0.83927870  0.19307724  1
  S  S53  1  0.32077551  0.08615541  0.28538075  1
  S  S54  1  0.50983578  0.33289275  0.56701052  1
  S  S55  1  0.62303501  0.98722327  0.75158131  1
  S  S56  1  0.53288758  0.70964313  0.40999258  1
  Ba  Ba57  1  0.21394098  0.11128107  0.90778106  1
  Fe  Fe58  1  0.45877373  0.20594619  0.43092304  1
  S  S59  1  0.17255178  0.55098075  0.12325116  1
  S  S60  1  0.93714082  0.11579733  0.41695908  1
  S  S61  1  0.72421944  0.61870939  0.92795920  1
  Ba  Ba62  1  0.02621946  0.86328375  0.60041010  1
  Ca  Ca63  1  0.95255715  0.52079678  0.29490942  1
  S  S64  1  0.60445511  0.13923264  0.12123190  1
