# generated using pymatgen
data_CsK4BaNaLiCa3U6FeCu5Ag3WCS24Cl6O7
_symmetry_space_group_name_H-M   'P 1'
_cell_length_a   6.16562462
_cell_length_b   6.47381926
_cell_length_c   7.14673281
_cell_angle_alpha   115.88598633
_cell_angle_beta   99.69436646
_cell_angle_gamma   91.25775909
_symmetry_Int_Tables_number   1
_chemical_formula_structural   CsK4BaNaLiCa3U6FeCu5Ag3WCS24Cl6O7
_chemical_formula_sum
'Cs1 K4 Ba1 Na1 Li1 Ca3 U6 Fe1 Cu5 Ag3 W1 C1 S24 Cl6 O7'
_cell_volume   251.50592218
_cell_formula_units_Z   1
loop_
 _symmetry_equiv_pos_site_id
 _symmetry_equiv_pos_as_xyz
  1  'x, y, z'
loop_
 _atom_site_type_symbol
 _atom_site_label
 _atom_site_symmetry_multiplicity
 _atom_site_fract_x
 _atom_site_fract_y
 _atom_site_fract_z
 _atom_site_occupancy
  W  W0  1  0.56111395  0.74040550  0.82794237  1
  O  O1  1  0.14730795  0.15221100  0.63334161  1
  Cs  Cs2  1  0.10926063  0.38167164  0.09294161  1
  O  O3  1  0.37783533  0.82945430  0.00287873  1
  O  O4  1  0.72632658  0.99101901  0.86496943  1
  K  K5  1  0.52975839  0.07632298  0.48378330  1
  O  O6  1  0.91420811  0.20711821  0.38388070  1
  O  O7  1  0.43818548  0.60980016  0.55811781  1
  K  K8  1  0.03813777  0.67363471  0.68061036  1
  O  O9  1  0.92188144  0.84280175  0.38125736  1
  O  O10  1  0.72373366  0.52735138  0.86785173  1
  C  C11  1  0.00143686  0.06323706  0.46291253  1
  S  S12  1  0.66288531  0.59036076  0.03772229  1
  U  U13  1  0.12689276  0.06340083  0.27515027  1
  Ag  Ag14  1  0.12618428  0.06017296  0.77103275  1
  Li  Li15  1  0.46001962  0.72767830  0.77035898  1
  S  S16  1  0.94852310  0.21280669  0.01385438  1
  S  S17  1  0.32358274  0.92906976  0.53563184  1
  U  U18  1  0.79470354  0.39222881  0.77068925  1
  Ag  Ag19  1  0.45866948  0.72155422  0.26742584  1
  S  S20  1  0.97213554  0.24145396  0.52733809  1
  S  S21  1  0.59456277  0.52509606  0.51010990  1
  Ag  Ag22  1  0.78913808  0.39653626  0.27329060  1
  S  S23  1  0.25404149  0.86122793  0.00636008  1
  Cl  Cl24  1  0.33522028  0.79319298  0.23131943  1
  Cl  Cl25  1  0.85377729  0.27499095  0.23255420  1
  Cl  Cl26  1  0.33227265  0.79241025  0.70739669  1
  Cl  Cl27  1  0.86031675  0.79205942  0.70700240  1
  K  K28  1  0.84273779  0.78362447  0.22014165  1
  Cl  Cl29  1  0.33631745  0.26774743  0.22897482  1
  Na  Na30  1  0.59789568  0.52885592  0.96944308  1
  Cl  Cl31  1  0.85396814  0.27060944  0.70915991  1
  Cu  Cu32  1  0.09293525  0.03483336  0.46697322  1
  K  K33  1  0.34677738  0.27944392  0.72168958  1
  S  S34  1  0.66662395  0.00850357  0.28324893  1
  S  S35  1  0.80513412  0.66944927  0.03358018  1
  U  U36  1  0.23360534  0.63499475  0.75863802  1
  U  U37  1  0.30250335  0.14231019  0.55982107  1
  Ca  Ca38  1  0.73201364  0.32432553  0.06019068  1
  U  U39  1  0.87672293  0.63983816  0.37521231  1
  S  S40  1  0.96313822  0.43374842  0.67851818  1
  S  S41  1  0.04276182  0.01005248  0.86538798  1
  U  U42  1  0.38822943  0.95253009  0.07430905  1
  S  S43  1  0.43311119  0.25706509  0.84893882  1
  S  S44  1  0.10441340  0.26470208  0.26692015  1
  S  S45  1  0.15061779  0.85627002  0.45028132  1
  S  S46  1  0.52250612  0.44932699  0.44549680  1
  S  S47  1  0.57071310  0.82952642  0.68832850  1
  S  S48  1  0.30692798  0.61942548  0.09179658  1
  Ca  Ca49  1  0.85528576  0.59410232  0.70823765  1
  Cu  Cu50  1  0.41340187  0.96917421  0.63499326  1
  S  S51  1  0.88706946  0.80389518  0.19533128  1
  S  S52  1  0.03429770  0.37328315  0.37807104  1
  Fe  Fe53  1  0.89407140  0.30300978  0.20649651  1
  S  S54  1  0.28936818  0.46225861  0.63870275  1
  S  S55  1  0.78173089  0.24144064  0.03068741  1
  Ba  Ba56  1  0.48328933  0.89048463  0.35110980  1
  S  S57  1  0.38505733  0.30563805  0.19697517  1
  Cu  Cu58  1  0.01600275  0.61881775  0.51418185  1
  Ca  Ca59  1  0.31432745  0.73684245  0.07989061  1
  S  S60  1  0.20681801  0.69503790  0.89042884  1
  Cu  Cu61  1  0.39801738  0.20787619  0.89857137  1
  S  S62  1  0.74428105  0.95477265  0.55926383  1
  Cu  Cu63  1  0.94194371  0.05540235  0.91899753  1
  S  S64  1  0.63156456  0.15659775  0.78778827  1
