# generated using pymatgen
data_Li2CaCe2Y2MgInFe3Co8ReNiAg3BAsP2N7O20F11
_symmetry_space_group_name_H-M   'P 1'
_cell_length_a   5.77787256
_cell_length_b   5.78773308
_cell_length_c   6.32254696
_cell_angle_alpha   106.57270813
_cell_angle_beta   83.77281189
_cell_angle_gamma   88.57794189
_symmetry_Int_Tables_number   1
_chemical_formula_structural
Li2CaCe2Y2MgInFe3Co8ReNiAg3BAsP2N7O20F11
_chemical_formula_sum
'Li2 Ca1 Ce2 Y2 Mg1 In1 Fe3 Co8 Re1 Ni1 Ag3 B1 As1 P2 N7 O20 F11'
_cell_volume   201.10685677
_cell_formula_units_Z   1
loop_
 _symmetry_equiv_pos_site_id
 _symmetry_equiv_pos_as_xyz
  1  'x, y, z'
loop_
 _atom_site_type_symbol
 _atom_site_label
 _atom_site_symmetry_multiplicity
 _atom_site_fract_x
 _atom_site_fract_y
 _atom_site_fract_z
 _atom_site_occupancy
  N  N0  1  0.64740169  0.10520951  0.92587829  1
  Ca  Ca1  1  0.70893449  0.48991013  0.13648961  1
  N  N2  1  0.33436441  0.70998323  0.07516064  1
  Ce  Ce3  1  0.98769987  0.92689717  0.01903911  1
  Mg  Mg4  1  0.53178853  0.80377823  0.72530174  1
  N  N5  1  0.78674364  0.87728697  0.37872732  1
  Ni  Ni6  1  0.86777633  0.12415574  0.63572735  1
  Y  Y7  1  0.44060513  0.06676818  0.29153198  1
  Y  Y8  1  0.28826532  0.33580288  0.86078012  1
  B  B9  1  0.70715404  0.43612745  0.62620664  1
  N  N10  1  0.19971208  0.98563373  0.65103233  1
  N  N11  1  0.89846331  0.48655522  0.73777980  1
  N  N12  1  0.09932113  0.27108118  0.19210440  1
  N  N13  1  0.50078285  0.45028055  0.52467972  1
  Ce  Ce14  1  0.13234323  0.62562311  0.42770037  1
  O  O15  1  0.41888773  0.51943511  0.91136599  1
  O  O16  1  0.05280337  0.53970015  0.26051369  1
  Fe  Fe17  1  0.74874973  0.04311614  0.08220775  1
  O  O18  1  0.92014050  0.74364519  0.93851352  1
  O  O19  1  0.39774665  0.97217846  0.92083293  1
  Fe  Fe20  1  0.74087876  0.52851540  0.08098710  1
  O  O21  1  0.05221289  0.12858389  0.27288100  1
  O  O22  1  0.55814117  0.11806585  0.57819170  1
  O  O23  1  0.15216719  0.43270251  0.57691914  1
  P  P24  1  0.68968445  0.88721490  0.50267196  1
  Fe  Fe25  1  0.23386021  0.20519994  0.76514953  1
  O  O26  1  0.89472854  0.25400856  0.93647820  1
  O  O27  1  0.65220332  0.82822096  0.27381229  1
  O  O28  1  0.00476905  0.88468552  0.60181791  1
  P  P29  1  0.19057396  0.35374528  0.33310941  1
  Re  Re30  1  0.24274234  0.71047980  0.76874208  1
  O  O31  1  0.54773247  0.70141721  0.58500433  1
  O  O32  1  0.50526124  0.33156896  0.24301067  1
  F  F33  1  0.76110160  0.67409074  0.05799331  1
  F  F34  1  0.62134904  0.20631571  0.23487920  1
  F  F35  1  0.37956929  0.64787179  0.78326881  1
  In  In36  1  0.00311972  0.93007636  0.50615275  1
  F  F37  1  0.28333151  0.54432863  0.24331616  1
  As  As38  1  0.50239742  0.42369264  0.01044732  1
  F  F39  1  0.24070320  0.17600538  0.96925092  1
  F  F40  1  0.71814650  0.30335182  0.77300870  1
  Ag  Ag41  1  0.64087796  0.42018217  0.61130691  1
  F  F42  1  0.12510382  0.28929195  0.29065406  1
  F  F43  1  0.38612157  0.13794239  0.73615187  1
  F  F44  1  0.81905031  0.99273503  0.16810656  1
  F  F45  1  0.73493862  0.50008422  0.93138450  1
  Ag  Ag46  1  0.81355095  0.86433792  0.82762372  1
  F  F47  1  0.29843876  0.76706499  0.52174544  1
  Ag  Ag48  1  0.22256093  0.64311916  0.21603251  1
  Li  Li49  1  0.01878942  0.22721170  0.03510535  1
  Li  Li50  1  0.41399372  0.05454616  0.42845941  1
  O  O51  1  0.00470764  0.71490842  0.86050248  1
  O  O52  1  0.50422394  0.47204819  0.10608190  1
  O  O53  1  0.00131049  0.22178124  0.35374880  1
  Co  Co54  1  0.00674890  0.96944916  0.10505746  1
  O  O55  1  0.00238316  0.71830225  0.36107194  1
  Co  Co56  1  0.50469369  0.21640569  0.85758334  1
  O  O57  1  0.00589132  0.22756234  0.85737067  1
  Co  Co58  1  0.50242567  0.71952826  0.36361998  1
  Co  Co59  1  0.01085706  0.46969631  0.61027664  1
  Co  Co60  1  0.00149470  0.46947551  0.10695153  1
  Co  Co61  1  0.50167251  0.71932423  0.85467994  1
  Co  Co62  1  0.50419700  0.21973661  0.36017951  1
  O  O63  1  0.50674683  0.47366363  0.61122173  1
  Co  Co64  1  0.99853063  0.97049809  0.60680842  1
  O  O65  1  0.50414413  0.96524173  0.10884953  1
  O  O66  1  0.50550681  0.96686333  0.61058605  1
