# generated using pymatgen
data_Cs2KRb2BaNaLiCaDyYMgTi3Tl2Co2SiBiAsH2WCl3O28
_symmetry_space_group_name_H-M   'P 1'
_cell_length_a   6.19659805
_cell_length_b   6.36089897
_cell_length_c   8.49795151
_cell_angle_alpha   93.65718842
_cell_angle_beta   93.44322205
_cell_angle_gamma   90.87302399
_symmetry_Int_Tables_number   1
_chemical_formula_structural
Cs2KRb2BaNaLiCaDyYMgTi3Tl2Co2SiBiAsH2WCl3O28
_chemical_formula_sum
;
Cs2 Rb2 K1 Ba1 Na1 Li1 Ca1 Y1 Dy1 Mg1 Ti3 Tl2 Co2 Si1 Bi1 As1 H2 W1
Cl3 O28
;
_cell_volume   333.60802437
_cell_formula_units_Z   1
loop_
 _symmetry_equiv_pos_site_id
 _symmetry_equiv_pos_as_xyz
  1  'x, y, z'
loop_
 _atom_site_type_symbol
 _atom_site_label
 _atom_site_symmetry_multiplicity
 _atom_site_fract_x
 _atom_site_fract_y
 _atom_site_fract_z
 _atom_site_occupancy
  O  O0  1  0.27659711  0.04590527  0.25081155  1
  Rb  Rb1  1  0.29431260  0.88734245  0.90703291  1
  O  O2  1  0.07038084  0.65295160  0.27469096  1
  Cl  Cl3  1  0.78499418  0.34885731  0.54766959  1
  O  O4  1  0.29453978  0.85337639  0.54618216  1
  Cl  Cl5  1  0.78602535  0.90428478  0.90545726  1
  Tl  Tl6  1  0.78383029  0.83710951  0.52251762  1
  Cl  Cl7  1  0.28786385  0.38492471  0.85405159  1
  As  As8  1  0.28548294  0.80552989  0.32829678  1
  Rb  Rb9  1  0.78874242  0.42603475  0.02402842  1
  Ba  Ba10  1  0.28122509  0.34785685  0.48999810  1
  O  O11  1  0.48767623  0.65520328  0.26343086  1
  O  O12  1  0.86235309  0.66381055  0.31345612  1
  O  O13  1  0.08266947  0.39011222  0.65323502  1
  Cs  Cs14  1  0.01215779  0.80944544  0.90176851  1
  W  W15  1  0.78652769  0.58319372  0.56762540  1
  K  K16  1  0.17674738  0.96947181  0.38403499  1
  Cs  Cs17  1  0.58602649  0.38771048  0.15451524  1
  O  O18  1  0.59011471  0.39120385  0.64792168  1
  O  O19  1  0.58954298  0.88028532  0.64857513  1
  O  O20  1  0.30923688  0.11021418  0.01637328  1
  Mg  Mg21  1  0.38879672  0.18819955  0.74968195  1
  O  O22  1  0.96376616  0.74306208  0.63585663  1
  Y  Y23  1  0.45858920  0.68519223  0.66142035  1
  Bi  Bi24  1  0.96015370  0.19206525  0.65991044  1
  O  O25  1  0.45917484  0.43358585  0.36051875  1
  Dy  Dy26  1  0.45925182  0.21209925  0.06061200  1
  Tl  Tl27  1  0.95953304  0.70210093  0.21506660  1
  O  O28  1  0.96315759  0.21527858  0.99526191  1
  O  O29  1  0.46302930  0.18083431  0.72269332  1
  O  O30  1  0.46116489  0.72245252  0.99036360  1
  H  H31  1  0.80325997  0.45976275  0.69083977  1
  Li  Li32  1  0.45762423  0.64341491  0.91489702  1
  Na  Na33  1  0.25877684  0.85867065  0.41647601  1
  O  O34  1  0.77075154  0.02818679  0.12755433  1
  H  H35  1  0.62743312  0.19278574  0.17575096  1
  O  O36  1  0.29058483  0.41609460  0.12013321  1
  O  O37  1  0.06161289  0.83932304  0.74247944  1
  O  O38  1  0.67831010  0.29698235  0.74072373  1
  Si  Si39  1  0.96762216  0.14771011  0.92883980  1
  O  O40  1  0.42714831  0.99604946  0.23139782  1
  O  O41  1  0.38241997  0.07300977  0.83101070  1
  O  O42  1  0.86031616  0.82881922  0.04890583  1
  Ti  Ti43  1  0.90649283  0.51930004  0.55669755  1
  Ti  Ti44  1  0.10811325  0.94134474  0.92379481  1
  Co  Co45  1  0.31433022  0.35914552  0.33395910  1
  O  O46  1  0.00096226  0.24678509  0.05605677  1
  O  O47  1  0.08984197  0.20506763  0.45462736  1
  Ca  Ca48  1  0.59859568  0.48309472  0.94448847  1
  O  O49  1  0.78128618  0.85157913  0.63760120  1
  O  O50  1  0.20552206  0.69264042  0.44890127  1
  O  O51  1  0.64998817  0.34213954  0.61680317  1
  Co  Co52  1  0.74080431  0.11082437  0.15859897  1
  Ti  Ti53  1  0.41391781  0.99417418  0.54139018  1
  O  O54  1  0.17495732  0.62406641  0.82122195  1
  O  O55  1  0.63969988  0.43717009  0.27147913  1
