# generated using pymatgen
data_Cs2Rb2Na2Li3Ca2LaCeHoTiTl2ZnCo2Cu2SiGeHW2S2I2ClO24
_symmetry_space_group_name_H-M   'P 1'
_cell_length_a   6.19659805
_cell_length_b   6.36089897
_cell_length_c   8.49795151
_cell_angle_alpha   93.65718842
_cell_angle_beta   93.44322205
_cell_angle_gamma   90.87302399
_symmetry_Int_Tables_number   1
_chemical_formula_structural
Cs2Rb2Na2Li3Ca2LaCeHoTiTl2ZnCo2Cu2SiGeHW2S2I2ClO24
_chemical_formula_sum
;
Cs2 Rb2 Na2 Li3 Ca2 La1 Ce1 Ho1 Ti1 Tl2 Zn1 Co2 Cu2 Si1 Ge1 H1 W2 S2
I2 Cl1 O24
;
_cell_volume   333.60802437
_cell_formula_units_Z   1
loop_
 _symmetry_equiv_pos_site_id
 _symmetry_equiv_pos_as_xyz
  1  'x, y, z'
loop_
 _atom_site_type_symbol
 _atom_site_label
 _atom_site_symmetry_multiplicity
 _atom_site_fract_x
 _atom_site_fract_y
 _atom_site_fract_z
 _atom_site_occupancy
  S  S0  1  0.26253906  0.50095767  0.99487156  1
  O  O1  1  0.75736731  0.49890247  0.19524211  1
  I  I2  1  0.25829345  0.49933022  0.50990373  1
  O  O3  1  0.26617184  0.00506199  0.19019231  1
  Ce  Ce4  1  0.51240265  0.25526530  0.21462542  1
  I  I5  1  0.75628757  0.00264819  0.50688910  1
  Rb  Rb6  1  0.75834310  0.50313050  0.76982296  1
  La  La7  1  0.01441629  0.75679994  0.22223517  1
  S  S8  1  0.75799251  0.99911124  0.98725092  1
  Rb  Rb9  1  0.25905460  0.00294069  0.77338707  1
  Cu  Cu10  1  0.51452959  0.74797034  0.11079945  1
  Cu  Cu11  1  0.00459983  0.25312302  0.10114734  1
  Cs  Cs12  1  0.20714058  0.52432185  0.71018946  1
  O  O13  1  0.04938789  0.96085823  0.35854456  1
  O  O14  1  0.35421374  0.26767811  0.33180487  1
  W  W15  1  0.03652987  0.28694427  0.33878106  1
  Cs  Cs16  1  0.79952645  0.10477868  0.98702466  1
  Na  Na17  1  0.65204042  0.89549530  0.49908382  1
  O  O18  1  0.80229402  0.41847235  0.55334055  1
  Cl  Cl19  1  0.42586517  0.88874304  0.84886420  1
  Na  Na20  1  0.43972817  0.64967275  0.19671622  1
  O  O21  1  0.91300040  0.50441760  0.13464254  1
  O  O22  1  0.45620763  0.91968817  0.03515085  1
  Tl  Tl23  1  0.96254182  0.16895354  0.81274378  1
  O  O24  1  0.45692739  0.90080154  0.57072276  1
  Ho  Ho25  1  0.46010676  0.17675823  0.29988307  1
  Tl  Tl26  1  0.96219379  0.68517369  0.30672929  1
  O  O27  1  0.96686077  0.20791686  0.32811254  1
  O  O28  1  0.94392037  0.66646659  0.79257178  1
  O  O29  1  0.45969716  0.44601041  0.03570662  1
  W  W30  1  0.45752671  0.68978959  0.82142210  1
  H  H31  1  0.30419764  0.28998831  0.31160289  1
  O  O32  1  0.42181721  0.85857874  0.88499200  1
  Zn  Zn33  1  0.94429654  0.76181269  0.98205972  1
  Li  Li34  1  0.31813928  0.72956473  0.53741038  1
  Si  Si35  1  0.82970238  0.21047409  0.53387541  1
  Li  Li36  1  0.47006527  0.24202394  0.97651136  1
  O  O37  1  0.03837022  0.94025826  0.36669946  1
  O  O38  1  0.91729295  0.34679186  0.84351647  1
  O  O39  1  0.54515934  0.38454744  0.36228910  1
  Ca  Ca40  1  0.66342336  0.45875624  0.49183333  1
  O  O41  1  0.37324804  0.13142198  0.33329779  1
  O  O42  1  0.99209684  0.08558538  0.52478975  1
  Ca  Ca43  1  0.40760565  0.85803139  0.98715365  1
  O  O44  1  0.82092577  0.92968911  0.04017133  1
  O  O45  1  0.81486493  0.52007139  0.22467734  1
  Ti  Ti46  1  0.91275102  0.57638663  0.99890494  1
  Ge  Ge47  1  0.25551057  0.91008377  0.42871004  1
  O  O48  1  0.50690836  0.87393463  0.64941734  1
  O  O49  1  0.25840059  0.64980990  0.22188482  1
  Co  Co50  1  0.03228398  0.22505024  0.19177012  1
  O  O51  1  0.11948083  0.22183873  0.93711478  1
  Co  Co52  1  0.83753604  0.02721102  0.76653451  1
  O  O53  1  0.03289860  0.64857751  0.76555496  1
  Li  Li54  1  0.25686741  0.33052012  0.74273717  1
  O  O55  1  0.61634713  0.42352584  0.81422746  1
