# generated using pymatgen
data_Ba4Sr2LiLa2Gd2Er2AlGa5SnB2PPt2C2S13I5N3
_symmetry_space_group_name_H-M   'P 1'
_cell_length_a   5.11456823
_cell_length_b   5.07620716
_cell_length_c   7.05868673
_cell_angle_alpha   70.18124390
_cell_angle_beta   69.13948822
_cell_angle_gamma   60.55068588
_symmetry_Int_Tables_number   1
_chemical_formula_structural
Ba4Sr2LiLa2Gd2Er2AlGa5SnB2PPt2C2S13I5N3
_chemical_formula_sum
'Ba4 Sr2 Li1 La2 Gd2 Er2 Al1 Ga5 Sn1 B2 P1 Pt2 C2 S13 I5 N3'
_cell_volume   146.06315454
_cell_formula_units_Z   1
loop_
 _symmetry_equiv_pos_site_id
 _symmetry_equiv_pos_as_xyz
  1  'x, y, z'
loop_
 _atom_site_type_symbol
 _atom_site_label
 _atom_site_symmetry_multiplicity
 _atom_site_fract_x
 _atom_site_fract_y
 _atom_site_fract_z
 _atom_site_occupancy
  S  S0  1  0.07800145  0.36538133  0.75612682  1
  Gd  Gd1  1  0.94684941  0.23829979  0.15083447  1
  Pt  Pt2  1  0.20746802  0.47871286  0.39999008  1
  Gd  Gd3  1  0.44813314  0.73642170  0.64608377  1
  S  S4  1  0.57811064  0.86871612  0.26148817  1
  S  S5  1  0.31873232  0.60401386  0.03625558  1
  S  S6  1  0.82814413  0.10168505  0.53117293  1
  Pt  Pt7  1  0.70312923  0.98283589  0.89832133  1
  S  S8  1  0.82364637  0.37882376  0.27702588  1
  Ba  Ba9  1  0.39175329  0.20098749  0.43789834  1
  B  B10  1  0.71907330  0.97014314  0.96600717  1
  S  S11  1  0.89709067  0.85112870  0.75833285  1
  Ba  Ba12  1  0.47859770  0.64477193  0.93387282  1
  S  S13  1  0.80985498  0.84399843  0.22325507  1
  B  B14  1  0.72143179  0.61347455  0.38498282  1
  S  S15  1  0.41769105  0.67526054  0.44423300  1
  S  S16  1  0.43938380  0.15580793  0.93205309  1
  S  S17  1  0.90458620  0.56556576  0.63326454  1
  N  N18  1  0.67866546  0.91418731  0.68943691  1
  S  S19  1  0.89415264  0.17322508  0.14112291  1
  N  N20  1  0.00978521  0.64032453  0.77844232  1
  S  S21  1  0.43386561  0.35459042  0.89055020  1
  La  La22  1  0.92513704  0.27369246  0.48001990  1
  S  S23  1  0.26550680  0.96343088  0.43353486  1
  Li  Li24  1  0.93028933  0.25308126  0.86448383  1
  La  La25  1  0.24211106  0.83572555  0.09364692  1
  Al  Al26  1  0.33724457  0.95625353  0.69851142  1
  P  P27  1  0.70957112  0.64795852  0.74012756  1
  Ga  Ga28  1  0.63785237  0.51811373  0.58374828  1
  Er  Er29  1  0.13273580  0.01846359  0.59803051  1
  Ga  Ga30  1  0.64552945  0.00832419  0.84926438  1
  Ga  Ga31  1  0.64188570  0.49611911  0.12241155  1
  Ga  Ga32  1  0.63649076  0.00867043  0.35145032  1
  Er  Er33  1  0.14567833  0.00381998  0.10458718  1
  Ga  Ga34  1  0.13558796  0.51174152  0.35328239  1
  Sn  Sn35  1  0.14303079  0.50860685  0.84862059  1
  Sr  Sr36  1  0.12109340  0.50026757  0.46441197  1
  C  C37  1  0.99799722  0.24696168  0.11436246  1
  N  N38  1  0.10419506  0.47820055  0.11391967  1
  C  C39  1  0.85868728  0.99036390  0.11336184  1
  I  I40  1  0.84382081  0.92590791  0.77928007  1
  Sr  Sr41  1  0.11505597  0.49585825  0.76240784  1
  Ba  Ba42  1  0.30617195  0.84518903  0.99445009  1
  Ba  Ba43  1  0.29658222  0.85167891  0.23052967  1
  I  I44  1  0.84595424  0.93347043  0.44618329  1
  I  I45  1  0.57081366  0.40692043  0.30530140  1
  I  I46  1  0.55256194  0.36267111  0.61101812  1
  I  I47  1  0.57167673  0.39534935  0.92094862  1
