# generated using pymatgen
data_CsRbLi2CaLa3CeHoTiTlZnCoSiBi2SbTeHW2(I2O15)2
_symmetry_space_group_name_H-M   'P 1'
_cell_length_a   6.19659805
_cell_length_b   6.36089897
_cell_length_c   8.49795151
_cell_angle_alpha   93.65718842
_cell_angle_beta   93.44322205
_cell_angle_gamma   90.87302399
_symmetry_Int_Tables_number   1
_chemical_formula_structural
CsRbLi2CaLa3CeHoTiTlZnCoSiBi2SbTeHW2(I2O15)2
_chemical_formula_sum
;
Cs1 Rb1 Li2 Ca1 La3 Ce1 Ho1 Ti1 Tl1 Zn1 Co1 Si1 Bi2 Sb1 Te1 H1 W2 I4
O30
;
_cell_volume   333.60802437
_cell_formula_units_Z   1
loop_
 _symmetry_equiv_pos_site_id
 _symmetry_equiv_pos_as_xyz
  1  'x, y, z'
loop_
 _atom_site_type_symbol
 _atom_site_label
 _atom_site_symmetry_multiplicity
 _atom_site_fract_x
 _atom_site_fract_y
 _atom_site_fract_z
 _atom_site_occupancy
  La  La0  1  0.37006271  0.19784212  0.13594840  1
  La  La1  1  0.87517619  0.19991808  0.87058556  1
  O  O2  1  0.12018602  0.45208114  0.00405713  1
  I  I3  1  0.87210077  0.19968660  0.33475488  1
  O  O4  1  0.62164319  0.45359796  0.00507026  1
  Bi  Bi5  1  0.37615317  0.70575249  0.89164042  1
  O  O6  1  0.61924815  0.94384420  0.00355417  1
  O  O7  1  0.12209715  0.94319153  0.00828205  1
  La  La8  1  0.87255079  0.69650477  0.14404047  1
  I  I9  1  0.36636782  0.70067853  0.33414391  1
  I  I10  1  0.37308189  0.20064574  0.67448962  1
  I  I11  1  0.87599266  0.70500731  0.68098581  1
  Rb  Rb12  1  0.24662760  0.17680243  0.66979277  1
  W  W13  1  0.24029031  0.18774039  0.16373968  1
  O  O14  1  0.35664997  0.85057050  0.39203572  1
  Bi  Bi15  1  0.74040544  0.68887341  0.16689086  1
  O  O16  1  0.14454752  0.51087391  0.94137919  1
  O  O17  1  0.02670407  0.97161537  0.14366859  1
  O  O18  1  0.91916913  0.28674632  0.38973674  1
  O  O19  1  0.45735419  0.40042999  0.18510342  1
  Cs  Cs20  1  0.74302685  0.68560296  0.66697961  1
  O  O21  1  0.56876314  0.08537231  0.93998170  1
  O  O22  1  0.04575625  0.63123369  0.55427855  1
  O  O23  1  0.54683721  0.89833444  0.81849897  1
  W  W24  1  0.04798144  0.39720759  0.32076785  1
  O  O25  1  0.04750750  0.16337807  0.55098087  1
  Ho  Ho26  1  0.04972735  0.89792711  0.81765497  1
  Tl  Tl27  1  0.54103452  0.40109363  0.82081395  1
  O  O28  1  0.55305290  0.39381385  0.32310623  1
  O  O29  1  0.04551988  0.62455201  0.09359556  1
  O  O30  1  0.05553705  0.16036251  0.09160312  1
  O  O31  1  0.35257548  0.08176564  0.47168732  1
  O  O32  1  0.43787655  0.75920391  0.99190968  1
  Li  Li33  1  0.15895635  0.39204594  0.74094903  1
  Zn  Zn34  1  0.62251890  0.89971596  0.72182506  1
  O  O35  1  0.79088676  0.54927278  0.52010560  1
  Si  Si36  1  0.24137162  0.01548113  0.15408690  1
  H  H37  1  0.60739279  0.39122054  0.48400390  1
  Li  Li38  1  0.77272284  0.52620858  0.17145036  1
  O  O39  1  0.99386686  0.19870532  0.97709525  1
  O  O40  1  0.37877074  0.55737382  0.74965763  1
  O  O41  1  0.48325998  0.64715230  0.11976381  1
  Co  Co42  1  0.09109280  0.24638011  0.62937999  1
  O  O43  1  0.78760022  0.94595355  0.51144320  1
  O  O44  1  0.02625813  0.18194146  0.32973596  1
  Sb  Sb45  1  0.25881085  0.41005281  0.21569689  1
  O  O46  1  0.35669005  0.01106502  0.70627517  1
  O  O47  1  0.49980387  0.12332256  0.15285382  1
  Ce  Ce48  1  0.18449810  0.84181744  0.93755311  1
  O  O49  1  0.98049808  0.67646921  0.14019750  1
  O  O50  1  0.09110951  0.23636365  0.94357729  1
  Ca  Ca51  1  0.67863703  0.34205848  0.92922872  1
  Te  Te52  1  0.59665394  0.75391197  0.65546089  1
  O  O53  1  0.76475346  0.93153411  0.90806419  1
  Ti  Ti54  1  0.77080756  0.91817170  0.23463824  1
  O  O55  1  0.86508995  0.53567618  0.71960735  1
